
-------------------------------------------------------------------------
|    ___ _   _ ___                                                      |
|   / __| | | |_  )   Release 8.0.0 "Harrier"                           |
|   \__ \ |_| |/ /                                                      |
|   |___/\___//___|   Suite (Computational Fluid Dynamics Code)         |
|                                                                       |
-------------------------------------------------------------------------
| SU2 Project Website: https://su2code.github.io                        |
|                                                                       |
| The SU2 Project is maintained by the SU2 Foundation                   |
| (http://su2foundation.org)                                            |
-------------------------------------------------------------------------
| Copyright 2012-2023, SU2 Contributors                                 |
|                                                                       |
| SU2 is free software; you can redistribute it and/or                  |
| modify it under the terms of the GNU Lesser General Public            |
| License as published by the Free Software Foundation; either          |
| version 2.1 of the License, or (at your option) any later version.    |
|                                                                       |
| SU2 is distributed in the hope that it will be useful,                |
| but WITHOUT ANY WARRANTY; without even the implied warranty of        |
| MERCHANTABILITY or FITNESS FOR A PARTICULAR PURPOSE. See the GNU      |
| Lesser General Public License for more details.                       |
|                                                                       |
| You should have received a copy of the GNU Lesser General Public      |
| License along with SU2. If not, see <http://www.gnu.org/licenses/>.   |
-------------------------------------------------------------------------

Parsing config file for zone 0

----------------- Physical Case Definition ( Zone 0 ) -------------------
Compressible RANS equations.
Turbulence model: Spalart-Allmaras-noft2
Hybrid RANS/LES: No Hybrid RANS/LES
Mach number: 0.762.
Angle of attack (AoA): 0 deg, and angle of sideslip (AoS): 0 deg.
Reynolds number: 6.79424e+06. Reference length 1.
Fixed CL mode, target value: 0.622131.
Reading and writing binary SU2 native restart files.
Read flow solution from: solution_flow.dat.
Dimensional simulation.
The reference area is 1 m^2.
The semi-span will be computed using the max y(3D) value.
The reference length is 1 m.
Reference origin for moment evaluation is (0.25, 0, 0).
Surface(s) where the force coefficients are evaluated: AIRFOIL.

Surface(s) plotted in the output file: AIRFOIL.
Surface(s) affected by the design variables: AIRFOIL.
Input mesh file name: trax_125_deform.su2

--------------- Space Numerical Integration ( Zone 0 ) ------------------
Jameson-Schmidt-Turkel scheme (2nd order in space) for the flow inviscid terms.
JST viscous coefficients (2nd & 4th): 0.5, 0.02.
The method includes a grid stretching correction (p = 0.3).
Scalar upwind solver for the turbulence model.
First order integration in space.
Average of gradients with correction (viscous flow terms).
Average of gradients with correction (viscous turbulence terms).
Gradient for viscous and source terms: inverse-distance weighted Least-Squares.

--------------- Time Numerical Integration  ( Zone 0 ) ------------------
Local time stepping (steady state simulation).
Euler implicit method for the flow equations.
FGMRES is used for solving the linear system.
Using a ILU(0) preconditioning.
Convergence criteria of the linear solver: 1e-06.
Max number of linear iterations: 10.
No CFL adaptation.
Courant-Friedrichs-Lewy number:       10
Euler implicit time integration for the turbulence model.

------------------ Convergence Criteria  ( Zone 0 ) ---------------------
Maximum number of solver subiterations: 10499.
Begin convergence monitoring at iteration 10.
Residual minimum value: 1e-12.
Cauchy series min. value: 1e-06.
Number of Cauchy elements: 100.
Begin windowed time average at iteration 0.

-------------------- Output Information ( Zone 0 ) ----------------------
File writing frequency: 
+------------------------------------+
|                     File| Frequency|
+------------------------------------+
|                  RESTART|     10000|
|                 PARAVIEW|     10000|
|         SURFACE_PARAVIEW|     10000|
|              SURFACE_CSV|     10000|
+------------------------------------+
Writing the convergence history file every 1 inner iterations.
Writing the screen convergence history every 1 inner iterations.
The tabular file format is CSV (.csv).
Convergence history file name: history_direct.
Forces breakdown file name: forces_breakdown.dat.
Surface file name: surface_flow.
Volume file name: flow.
Restart file name: restart_flow.dat.

------------- Config File Boundary Information ( Zone 0 ) ---------------
+-----------------------------------------------------------------------+
|                        Marker Type|                        Marker Name|
+-----------------------------------------------------------------------+
|                          Far-field|                           FARFIELD|
+-----------------------------------------------------------------------+
|                     Heat flux wall|                            AIRFOIL|
+-----------------------------------------------------------------------+

-------------------- Output Preprocessing ( Zone 0 ) --------------------

WARNING: SURFACE_PRESSURE_DROP can only be computed for at least 2 surfaces (outlet, inlet, ...)

Screen output fields: INNER_ITER, RMS_DENSITY, RMS_NU_TILDE, LIFT, DRAG
History output group(s): ITER, RMS_RES, AERO_COEFF
Convergence field(s): RMS_DENSITY
Warning: No (valid) fields chosen for time convergence monitoring. Time convergence monitoring inactive.
Volume output fields: COORDINATES, SOLUTION, PRIMITIVE

------------------- Geometry Preprocessing ( Zone 0 ) -------------------
Two dimensional problem.
13937 grid points before partitioning.
22842 volume elements before partitioning.
2 surface markers.
192 boundary elements in index 0 (Marker = AIRFOIL).
40 boundary elements in index 1 (Marker = FARFIELD).
Executing the partitioning functions.
Building the graph adjacency structure.
Calling ParMETIS... graph partitioning complete (1496 edge cuts).
Distributing ParMETIS coloring.
Rebalancing vertices.
Rebalancing volume element connectivity.
Rebalancing markers and surface elements.
15800 vertices including ghost points. 
24347 interior elements including halo cells. 
19221 triangles.
5126 quadrilaterals.
Establishing MPI communication patterns.
Setting point connectivity.
Renumbering points (Reverse Cuthill McKee Ordering).
Recomputing point connectivity.
Setting element connectivity.
Checking the numerical grid orientation.
All volume elements are correctly orientend.
All surface elements are correctly orientend.
Identifying edges and vertices.
Setting the control volume structure.
Area of the computational grid: 32851.
Searching for the closest normal neighbors to the surfaces.
Storing a mapping from global to local point index.
Compute the surface curvature.
Max K: 306.024. Mean K: 12.191. Standard deviation K: 46.3455.
Checking for periodicity.
Computing mesh quality statistics for the dual control volumes.
+--------------------------------------------------------------+
|           Mesh Quality Metric|        Minimum|        Maximum|
+--------------------------------------------------------------+
|    Orthogonality Angle (deg.)|         74.487|        89.9992|
|     CV Face Area Aspect Ratio|        1.00236|        3360.61|
|           CV Sub-Volume Ratio|        1.00045|        1271.25|
+--------------------------------------------------------------+
Finding max control volume width.
Communicating number of neighbors.
Wetted area = 2.00246 m.
Area projection in the x-plane = 0.0582228 m, y-plane = 0.995873 m.
Max. coordinate in the x-direction = 1 m, y-direction = 0.0323687 m.
Min. coordinate in the x-direction = 0 m, y-direction = -0.00499663 m.
Computing wall distances.

-------------------- Solver Preprocessing ( Zone 0 ) --------------------
WARNING: AoA in the solution file (0.204052 deg.) +
         AoA offset in mesh file (0 deg.) = 0.204052 deg.
WARNING: SU2 will use the dCD/dCL provided in the direct solution file: 0.00195404.
WARNING: SU2 will use the dCMz/dCL provided in the direct solution file: -0.0182646.
Viscous flow: Computing pressure using the ideal gas law
based on the free-stream temperature and a density computed
from the Reynolds number.
Force coefficients computed using free-stream values.

-- Models:
+------------------------------------------------------------------------------+
|          Viscosity Model|        Conductivity Model|              Fluid Model|
+------------------------------------------------------------------------------+
|               SUTHERLAND|          CONSTANT_PRANDTL|             STANDARD_AIR|
+------------------------------------------------------------------------------+
-- Fluid properties:
+------------------------------------------------------------------------------+
|                  Name|    Dim. value|    Ref. value|      Unit|Non-dim. value|
+------------------------------------------------------------------------------+
|        Ref. Viscosity|     1.716e-05|             1|   N.s/m^2|     1.716e-05|
|      Sutherland Temp.|        273.15|             1|         K|        273.15|
|     Sutherland Const.|         110.4|             1|         K|         110.4|
+------------------------------------------------------------------------------+
|        Prandtl (Lam.)|             -|             -|         -|          0.72|
|       Prandtl (Turb.)|             -|             -|         -|           0.9|
+------------------------------------------------------------------------------+
|          Gas Constant|       287.058|             1|  N.m/kg.K|       287.058|
|      Spec. Heat Ratio|             -|             -|         -|           1.4|
+------------------------------------------------------------------------------+
-- Initial and free-stream conditions:
+------------------------------------------------------------------------------+
|                  Name|    Dim. value|    Ref. value|      Unit|Non-dim. value|
+------------------------------------------------------------------------------+
|       Static Pressure|       38779.2|             1|        Pa|       38779.2|
|               Density|      0.468824|             1|    kg/m^3|      0.468824|
|           Temperature|        288.15|             1|         K|        288.15|
|          Total Energy|        240409|             1|   m^2/s^2|        240409|
|            Velocity-X|       259.305|             1|       m/s|       259.305|
|            Velocity-Y|      0.923485|             1|       m/s|      0.923485|
|    Velocity Magnitude|       259.306|             1|       m/s|       259.306|
+------------------------------------------------------------------------------+
|             Viscosity|    1.7893e-05|             1|   N.s/m^2|    1.7893e-05|
|          Conductivity|             -|             1|   W/m^2.K|             -|
|     Turb. Kin. Energy|       252.149|             1|   m^2/s^2|       252.149|
|     Spec. Dissipation|        660671|             1|       1/s|        660671|
+------------------------------------------------------------------------------+
|           Mach Number|             -|             -|         -|         0.762|
|       Reynolds Number|             -|             -|         -|   6.79424e+06|
+------------------------------------------------------------------------------+
Initialize Jacobian structure (Navier-Stokes). MG level: 0.
Initialize Jacobian structure (SA model).

------------------- Numerics Preprocessing ( Zone 0 ) -------------------

----------------- Integration Preprocessing ( Zone 0 ) ------------------

------------------- Iteration Preprocessing ( Zone 0 ) ------------------
Euler/Navier-Stokes/RANS fluid iteration.

------------------------------ Begin Solver -----------------------------

Simulation Run using the Single-zone Driver
WARNING: SU2 was not compiled for an AVX-capable architecture. Performance could be better,
         see https://su2code.github.io/docs_v7/Build-SU2-Linux-MacOS/#compiler-optimizations
+----------------------------------------------------------------+
|  Inner_Iter|    rms[Rho]|     rms[nu]|          CL|          CD|
+----------------------------------------------------------------+
|           0|   -9.957058|   -8.916529|    0.622131|    0.007428|
|           1|  -10.003897|  -10.862302|    0.622131|    0.007428|
|           2|  -10.053629|  -11.253508|    0.622131|    0.007428|
|           3|  -10.089929|  -11.464449|    0.622131|    0.007428|
|           4|  -10.109299|  -11.610175|    0.622131|    0.007428|
|           5|  -10.115137|  -11.707329|    0.622131|    0.007428|
|           6|  -10.113963|  -11.770175|    0.622131|    0.007428|
|           7|  -10.110517|  -11.814934|    0.622131|    0.007428|
|           8|  -10.106609|  -11.852805|    0.622131|    0.007428|
|           9|  -10.102326|  -11.888547|    0.622131|    0.007428|
|          10|  -10.097261|  -11.922997|    0.622131|    0.007428|
|          11|  -10.091192|  -11.955508|    0.622131|    0.007428|
|          12|  -10.084277|  -11.985137|    0.622131|    0.007428|
|          13|  -10.076967|  -12.010821|    0.622131|    0.007428|
|          14|  -10.069784|  -12.031245|    0.622131|    0.007428|
|          15|  -10.063127|  -12.045095|    0.622131|    0.007428|
|          16|  -10.057174|  -12.051798|    0.622131|    0.007428|
|          17|  -10.051890|  -12.052161|    0.622131|    0.007428|
|          18|  -10.047092|  -12.048254|    0.622131|    0.007428|
|          19|  -10.042556|  -12.042611|    0.622131|    0.007428|
|          20|  -10.038103|  -12.037389|    0.622131|    0.007428|
|          21|  -10.033659|  -12.033935|    0.622131|    0.007428|
|          22|  -10.029255|  -12.032750|    0.622131|    0.007428|
|          23|  -10.024984|  -12.033677|    0.622131|    0.007428|
|          24|  -10.020947|  -12.036163|    0.622131|    0.007428|
|          25|  -10.017201|  -12.039524|    0.622131|    0.007428|
|          26|  -10.013745|  -12.043170|    0.622131|    0.007428|
|          27|  -10.010529|  -12.046771|    0.622131|    0.007428|
|          28|  -10.007483|  -12.050305|    0.622131|    0.007428|
|          29|  -10.004550|  -12.054022|    0.622131|    0.007428|
|          30|  -10.001710|  -12.058320|    0.622131|    0.007428|
|          31|   -9.998985|  -12.063608|    0.622131|    0.007428|
|          32|   -9.996427|  -12.070180|    0.622131|    0.007428|
|          33|   -9.994098|  -12.078128|    0.622131|    0.007428|
|          34|   -9.992045|  -12.087305|    0.622131|    0.007428|
|          35|   -9.990291|  -12.097326|    0.622131|    0.007428|
|          36|   -9.988820|  -12.107617|    0.622131|    0.007428|
|          37|   -9.987590|  -12.117503|    0.622131|    0.007428|
|          38|   -9.986528|  -12.126334|    0.622131|    0.007428|
|          39|   -9.985564|  -12.133615|    0.622131|    0.007428|
|          40|   -9.984626|  -12.139112|    0.622131|    0.007428|
|          41|   -9.983665|  -12.142886|    0.622131|    0.007428|
|          42|   -9.982664|  -12.145252|    0.622131|    0.007428|
|          43|   -9.981623|  -12.146681|    0.622131|    0.007428|
|          44|   -9.980571|  -12.147673|    0.622131|    0.007428|
|          45|   -9.979557|  -12.148663|    0.622131|    0.007428|
|          46|   -9.978630|  -12.149954|    0.622131|    0.007428|
|          47|   -9.977834|  -12.151690|    0.622131|    0.007428|
|          48|   -9.977208|  -12.153872|    0.622131|    0.007428|
|          49|   -9.976782|  -12.156383|    0.622131|    0.007428|
|          50|   -9.976568|  -12.159036|    0.622131|    0.007428|
|          51|   -9.976580|  -12.161624|    0.622131|    0.007428|
|          52|   -9.976819|  -12.163961|    0.622131|    0.007428|
|          53|   -9.977279|  -12.165920|    0.622131|    0.007428|
|          54|   -9.977959|  -12.167449|    0.622131|    0.007428|
|          55|   -9.978860|  -12.168574|    0.622131|    0.007428|
|          56|   -9.979973|  -12.169382|    0.622131|    0.007428|
|          57|   -9.981300|  -12.170000|    0.622131|    0.007428|
|          58|   -9.982833|  -12.170571|    0.622131|    0.007428|
|          59|   -9.984582|  -12.171230|    0.622131|    0.007428|
|          60|   -9.986543|  -12.172090|    0.622131|    0.007428|
|          61|   -9.988699|  -12.173237|    0.622131|    0.007428|
|          62|   -9.991051|  -12.174721|    0.622131|    0.007428|
|          63|   -9.993584|  -12.176566|    0.622131|    0.007428|
|          64|   -9.996268|  -12.178769|    0.622131|    0.007428|
|          65|   -9.999077|  -12.181307|    0.622131|    0.007428|
|          66|  -10.001969|  -12.184145|    0.622131|    0.007428|
|          67|  -10.004910|  -12.187234|    0.622131|    0.007428|
|          68|  -10.007860|  -12.190521|    0.622131|    0.007428|
|          69|  -10.010773|  -12.193949|    0.622131|    0.007428|
|          70|  -10.013611|  -12.197462|    0.622131|    0.007428|
|          71|  -10.016349|  -12.201007|    0.622131|    0.007428|
|          72|  -10.018961|  -12.204538|    0.622131|    0.007428|
|          73|  -10.021429|  -12.208017|    0.622131|    0.007428|
|          74|  -10.023742|  -12.211416|    0.622131|    0.007428|
|          75|  -10.025896|  -12.214717|    0.622131|    0.007428|
|          76|  -10.027881|  -12.217911|    0.622131|    0.007428|
|          77|  -10.029693|  -12.220998|    0.622131|    0.007428|
|          78|  -10.031323|  -12.223985|    0.622131|    0.007428|
|          79|  -10.032757|  -12.226885|    0.622131|    0.007428|
|          80|  -10.033975|  -12.229718|    0.622131|    0.007428|
|          81|  -10.034960|  -12.232510|    0.622131|    0.007428|
|          82|  -10.035680|  -12.235290|    0.622131|    0.007428|
|          83|  -10.036124|  -12.238093|    0.622131|    0.007428|
|          84|  -10.036266|  -12.240959|    0.622131|    0.007428|
|          85|  -10.036093|  -12.243926|    0.622131|    0.007428|
|          86|  -10.035599|  -12.247031|    0.622131|    0.007428|
|          87|  -10.034785|  -12.250306|    0.622131|    0.007428|
|          88|  -10.033655|  -12.253774|    0.622131|    0.007428|
|          89|  -10.032236|  -12.257448|    0.622131|    0.007428|
|          90|  -10.030541|  -12.261328|    0.622131|    0.007428|
|          91|  -10.028621|  -12.265397|    0.622131|    0.007428|
|          92|  -10.026505|  -12.269630|    0.622131|    0.007428|
|          93|  -10.024241|  -12.273989|    0.622131|    0.007428|
|          94|  -10.021873|  -12.278429|    0.622131|    0.007428|
|          95|  -10.019449|  -12.282900|    0.622131|    0.007428|
|          96|  -10.017009|  -12.287354|    0.622131|    0.007428|
|          97|  -10.014601|  -12.291747|    0.622131|    0.007428|
|          98|  -10.012257|  -12.296041|    0.622131|    0.007428|
|          99|  -10.010010|  -12.300211|    0.622131|    0.007428|
|         100|  -10.007879|  -12.304242|    0.622131|    0.007428|
|         101|  -10.005884|  -12.308131|    0.622131|    0.007428|
|         102|  -10.004022|  -12.311889|    0.622131|    0.007428|
|         103|  -10.002294|  -12.315533|    0.622131|    0.007428|
|         104|  -10.000690|  -12.319093|    0.622131|    0.007428|
|         105|   -9.999204|  -12.322599|    0.622131|    0.007428|
|         106|   -9.997802|  -12.326088|    0.622131|    0.007428|
|         107|   -9.996467|  -12.329594|    0.622131|    0.007428|
|         108|   -9.995172|  -12.333152|    0.622131|    0.007428|
|         109|   -9.993888|  -12.336790|    0.622131|    0.007428|
|         110|   -9.992601|  -12.340530|    0.622131|    0.007428|
|         111|   -9.991298|  -12.344391|    0.622131|    0.007428|
|         112|   -9.989963|  -12.348380|    0.622131|    0.007428|
|         113|   -9.988598|  -12.352497|    0.622131|    0.007428|
|         114|   -9.987215|  -12.356735|    0.622131|    0.007428|
|         115|   -9.985821|  -12.361079|    0.622131|    0.007428|
|         116|   -9.984446|  -12.365505|    0.622131|    0.007428|
|         117|   -9.983118|  -12.369984|    0.622131|    0.007428|
|         118|   -9.981866|  -12.374484|    0.622131|    0.007428|
|         119|   -9.980742|  -12.378966|    0.622131|    0.007428|
|         120|   -9.979769|  -12.383394|    0.622131|    0.007428|
|         121|   -9.979003|  -12.387727|    0.622131|    0.007428|
|         122|   -9.978476|  -12.391931|    0.622131|    0.007428|
|         123|   -9.978226|  -12.395973|    0.622131|    0.007428|
|         124|   -9.978285|  -12.399824|    0.622131|    0.007428|
|         125|   -9.978675|  -12.403462|    0.622131|    0.007428|
|         126|   -9.979432|  -12.406869|    0.622131|    0.007428|
|         127|   -9.980562|  -12.410035|    0.622131|    0.007428|
|         128|   -9.982074|  -12.412954|    0.622131|    0.007428|
|         129|   -9.983982|  -12.415627|    0.622131|    0.007428|
|         130|   -9.986269|  -12.418056|    0.622131|    0.007428|
|         131|   -9.988935|  -12.420250|    0.622131|    0.007428|
|         132|   -9.991956|  -12.422219|    0.622131|    0.007428|
|         133|   -9.995301|  -12.423975|    0.622131|    0.007428|
|         134|   -9.998930|  -12.425531|    0.622131|    0.007428|
|         135|  -10.002801|  -12.426900|    0.622131|    0.007428|
|         136|  -10.006851|  -12.428098|    0.622131|    0.007428|
|         137|  -10.011016|  -12.429138|    0.622131|    0.007428|
|         138|  -10.015232|  -12.430035|    0.622131|    0.007428|
|         139|  -10.019406|  -12.430801|    0.622131|    0.007428|
|         140|  -10.023449|  -12.431449|    0.622131|    0.007428|
|         141|  -10.027277|  -12.431992|    0.622131|    0.007428|
|         142|  -10.030792|  -12.432442|    0.622131|    0.007428|
|         143|  -10.033904|  -12.432810|    0.622131|    0.007428|
|         144|  -10.036523|  -12.433108|    0.622131|    0.007428|
|         145|  -10.038590|  -12.433344|    0.622131|    0.007428|
|         146|  -10.040033|  -12.433530|    0.622131|    0.007428|
|         147|  -10.040823|  -12.433675|    0.622131|    0.007428|
|         148|  -10.040928|  -12.433787|    0.622131|    0.007428|
|         149|  -10.040348|  -12.433873|    0.622131|    0.007428|
|         150|  -10.039110|  -12.433941|    0.622131|    0.007428|
|         151|  -10.037258|  -12.433998|    0.622131|    0.007428|
|         152|  -10.034833|  -12.434047|    0.622131|    0.007428|
|         153|  -10.031915|  -12.434095|    0.622131|    0.007428|
|         154|  -10.028586|  -12.434144|    0.622131|    0.007428|
|         155|  -10.024921|  -12.434199|    0.622131|    0.007428|
|         156|  -10.021002|  -12.434262|    0.622131|    0.007428|
|         157|  -10.016909|  -12.434335|    0.622131|    0.007428|
|         158|  -10.012712|  -12.434422|    0.622131|    0.007428|
|         159|  -10.008497|  -12.434524|    0.622131|    0.007428|
|         160|  -10.004303|  -12.434645|    0.622131|    0.007428|
|         161|  -10.000178|  -12.434787|    0.622131|    0.007428|
|         162|   -9.996170|  -12.434955|    0.622131|    0.007428|
|         163|   -9.992290|  -12.435153|    0.622131|    0.007428|
|         164|   -9.988589|  -12.435384|    0.622131|    0.007428|
|         165|   -9.985055|  -12.435654|    0.622131|    0.007428|
|         166|   -9.981708|  -12.435969|    0.622131|    0.007428|
|         167|   -9.978550|  -12.436333|    0.622131|    0.007428|
|         168|   -9.975564|  -12.436754|    0.622131|    0.007428|
|         169|   -9.972755|  -12.437235|    0.622131|    0.007428|
|         170|   -9.970106|  -12.437784|    0.622131|    0.007428|
|         171|   -9.967616|  -12.438404|    0.622131|    0.007428|
|         172|   -9.965265|  -12.439101|    0.622131|    0.007428|
|         173|   -9.963040|  -12.439880|    0.622131|    0.007428|
|         174|   -9.960947|  -12.440744|    0.622131|    0.007428|
|         175|   -9.958962|  -12.441697|    0.622131|    0.007428|
|         176|   -9.957087|  -12.442741|    0.622131|    0.007428|
|         177|   -9.955303|  -12.443879|    0.622131|    0.007428|
|         178|   -9.953614|  -12.445113|    0.622131|    0.007428|
|         179|   -9.952020|  -12.446444|    0.622131|    0.007428|
|         180|   -9.950502|  -12.447872|    0.622131|    0.007428|
|         181|   -9.949067|  -12.449397|    0.622131|    0.007428|
|         182|   -9.947733|  -12.451018|    0.622131|    0.007428|
|         183|   -9.946465|  -12.452734|    0.622131|    0.007428|
|         184|   -9.945284|  -12.454543|    0.622131|    0.007428|
|         185|   -9.944179|  -12.456443|    0.622131|    0.007428|
|         186|   -9.943142|  -12.458429|    0.622131|    0.007428|
|         187|   -9.942188|  -12.460497|    0.622131|    0.007428|
|         188|   -9.941301|  -12.462642|    0.622131|    0.007428|
|         189|   -9.940499|  -12.464857|    0.622131|    0.007428|
|         190|   -9.939767|  -12.467137|    0.622131|    0.007428|
|         191|   -9.939093|  -12.469473|    0.622131|    0.007428|
|         192|   -9.938500|  -12.471857|    0.622131|    0.007428|
|         193|   -9.937974|  -12.474280|    0.622131|    0.007428|
|         194|   -9.937531|  -12.476734|    0.622131|    0.007428|
|         195|   -9.937176|  -12.479208|    0.622131|    0.007428|
|         196|   -9.936917|  -12.481693|    0.622131|    0.007428|
|         197|   -9.936755|  -12.484179|    0.622131|    0.007428|
|         198|   -9.936715|  -12.486658|    0.622131|    0.007428|
|         199|   -9.936794|  -12.489121|    0.622131|    0.007428|
|         200|   -9.937012|  -12.491560|    0.622131|    0.007428|
|         201|   -9.937375|  -12.493968|    0.622131|    0.007428|
|         202|   -9.937898|  -12.496341|    0.622131|    0.007428|
|         203|   -9.938598|  -12.498672|    0.622131|    0.007428|
|         204|   -9.939497|  -12.500960|    0.622131|    0.007428|
|         205|   -9.940579|  -12.503201|    0.622131|    0.007428|
|         206|   -9.941874|  -12.505395|    0.622131|    0.007428|
|         207|   -9.943364|  -12.507541|    0.622131|    0.007428|
|         208|   -9.945073|  -12.509640|    0.622131|    0.007428|
|         209|   -9.946976|  -12.511695|    0.622131|    0.007428|
|         210|   -9.949070|  -12.513706|    0.622131|    0.007428|
|         211|   -9.951338|  -12.515675|    0.622131|    0.007428|
|         212|   -9.953790|  -12.517606|    0.622131|    0.007428|
|         213|   -9.956382|  -12.519500|    0.622131|    0.007428|
|         214|   -9.959114|  -12.521358|    0.622131|    0.007428|
|         215|   -9.961950|  -12.523183|    0.622131|    0.007428|
|         216|   -9.964875|  -12.524975|    0.622131|    0.007428|
|         217|   -9.967867|  -12.526733|    0.622131|    0.007428|
|         218|   -9.970897|  -12.528459|    0.622131|    0.007428|
|         219|   -9.973965|  -12.530151|    0.622131|    0.007428|
|         220|   -9.977043|  -12.531807|    0.622131|    0.007428|
|         221|   -9.980124|  -12.533426|    0.622131|    0.007428|
|         222|   -9.983196|  -12.535006|    0.622131|    0.007428|
|         223|   -9.986264|  -12.536545|    0.622131|    0.007428|
|         224|   -9.989332|  -12.538042|    0.622131|    0.007428|
|         225|   -9.992415|  -12.539493|    0.622131|    0.007428|
|         226|   -9.995520|  -12.540899|    0.622131|    0.007428|
|         227|   -9.998666|  -12.542258|    0.622131|    0.007428|
|         228|  -10.001874|  -12.543569|    0.622131|    0.007428|
|         229|  -10.005189|  -12.544834|    0.622131|    0.007428|
|         230|  -10.008619|  -12.546053|    0.622131|    0.007428|
|         231|  -10.012189|  -12.547228|    0.622131|    0.007428|
|         232|  -10.015919|  -12.548361|    0.622131|    0.007428|
|         233|  -10.019862|  -12.549457|    0.622131|    0.007428|
|         234|  -10.024020|  -12.550518|    0.622131|    0.007428|
|         235|  -10.028399|  -12.551549|    0.622131|    0.007428|
|         236|  -10.033050|  -12.552554|    0.622131|    0.007428|
|         237|  -10.037940|  -12.553539|    0.622131|    0.007428|
|         238|  -10.043087|  -12.554508|    0.622131|    0.007428|
|         239|  -10.048499|  -12.555467|    0.622131|    0.007428|
|         240|  -10.054140|  -12.556420|    0.622131|    0.007428|
|         241|  -10.060007|  -12.557370|    0.622131|    0.007428|
|         242|  -10.066088|  -12.558323|    0.622131|    0.007428|
|         243|  -10.072337|  -12.559281|    0.622131|    0.007428|
|         244|  -10.078716|  -12.560247|    0.622131|    0.007428|
|         245|  -10.085186|  -12.561222|    0.622131|    0.007428|
|         246|  -10.091709|  -12.562207|    0.622131|    0.007428|
|         247|  -10.098193|  -12.563202|    0.622131|    0.007428|
|         248|  -10.104602|  -12.564206|    0.622131|    0.007428|
|         249|  -10.110910|  -12.565217|    0.622131|    0.007428|
|         250|  -10.117013|  -12.566235|    0.622131|    0.007428|
|         251|  -10.122837|  -12.567255|    0.622131|    0.007428|
|         252|  -10.128353|  -12.568276|    0.622131|    0.007428|
|         253|  -10.133498|  -12.569294|    0.622131|    0.007428|
|         254|  -10.138208|  -12.570307|    0.622131|    0.007428|
|         255|  -10.142447|  -12.571311|    0.622131|    0.007428|
|         256|  -10.146177|  -12.572305|    0.622131|    0.007428|
|         257|  -10.149371|  -12.573288|    0.622131|    0.007428|
|         258|  -10.151989|  -12.574258|    0.622131|    0.007428|
|         259|  -10.154066|  -12.575216|    0.622131|    0.007428|
|         260|  -10.155559|  -12.576164|    0.622131|    0.007428|
|         261|  -10.156529|  -12.577103|    0.622131|    0.007428|
|         262|  -10.156953|  -12.578038|    0.622131|    0.007428|
|         263|  -10.156900|  -12.578973|    0.622131|    0.007428|
|         264|  -10.156392|  -12.579912|    0.622131|    0.007428|
|         265|  -10.155454|  -12.580864|    0.622131|    0.007428|
|         266|  -10.154165|  -12.581834|    0.622131|    0.007428|
|         267|  -10.152547|  -12.582829|    0.622131|    0.007428|
|         268|  -10.150657|  -12.583859|    0.622131|    0.007428|
|         269|  -10.148542|  -12.584929|    0.622131|    0.007428|
|         270|  -10.146257|  -12.586048|    0.622131|    0.007428|
|         271|  -10.143806|  -12.587223|    0.622131|    0.007428|
|         272|  -10.141272|  -12.588460|    0.622131|    0.007428|
|         273|  -10.138660|  -12.589765|    0.622131|    0.007428|
|         274|  -10.136017|  -12.591142|    0.622131|    0.007428|
|         275|  -10.133370|  -12.592597|    0.622131|    0.007428|
|         276|  -10.130733|  -12.594130|    0.622131|    0.007428|
|         277|  -10.128138|  -12.595745|    0.622131|    0.007428|
|         278|  -10.125585|  -12.597441|    0.622131|    0.007428|
|         279|  -10.123092|  -12.599217|    0.622131|    0.007428|
|         280|  -10.120686|  -12.601072|    0.622131|    0.007428|
|         281|  -10.118356|  -12.603004|    0.622131|    0.007428|
|         282|  -10.116126|  -12.605008|    0.622131|    0.007428|
|         283|  -10.113989|  -12.607080|    0.622131|    0.007428|
|         284|  -10.111945|  -12.609216|    0.622131|    0.007428|
|         285|  -10.110013|  -12.611410|    0.622131|    0.007428|
|         286|  -10.108186|  -12.613657|    0.622131|    0.007428|
|         287|  -10.106458|  -12.615950|    0.622131|    0.007428|
|         288|  -10.104846|  -12.618285|    0.622131|    0.007428|
|         289|  -10.103343|  -12.620656|    0.622131|    0.007428|
|         290|  -10.101957|  -12.623056|    0.622131|    0.007428|
|         291|  -10.100696|  -12.625482|    0.622131|    0.007428|
|         292|  -10.099555|  -12.627928|    0.622131|    0.007428|
|         293|  -10.098541|  -12.630390|    0.622131|    0.007428|
|         294|  -10.097661|  -12.632863|    0.622131|    0.007428|
|         295|  -10.096925|  -12.635345|    0.622131|    0.007428|
|         296|  -10.096338|  -12.637831|    0.622131|    0.007428|
|         297|  -10.095905|  -12.640319|    0.622131|    0.007428|
|         298|  -10.095636|  -12.642805|    0.622131|    0.007428|
|         299|  -10.095526|  -12.645286|    0.622131|    0.007428|
|         300|  -10.095617|  -12.647759|    0.622131|    0.007428|
|         301|  -10.095889|  -12.650222|    0.622131|    0.007428|
|         302|  -10.096360|  -12.652671|    0.622131|    0.007428|
|         303|  -10.097026|  -12.655102|    0.622131|    0.007428|
|         304|  -10.097908|  -12.657511|    0.622131|    0.007428|
|         305|  -10.099019|  -12.659895|    0.622131|    0.007428|
|         306|  -10.100336|  -12.662249|    0.622131|    0.007428|
|         307|  -10.101891|  -12.664568|    0.622131|    0.007428|
|         308|  -10.103670|  -12.666846|    0.622131|    0.007428|
|         309|  -10.105680|  -12.669079|    0.622131|    0.007428|
|         310|  -10.107929|  -12.671260|    0.622131|    0.007428|
|         311|  -10.110412|  -12.673385|    0.622131|    0.007428|
|         312|  -10.113125|  -12.675447|    0.622131|    0.007428|
|         313|  -10.116059|  -12.677441|    0.622131|    0.007428|
|         314|  -10.119200|  -12.679363|    0.622131|    0.007428|
|         315|  -10.122571|  -12.681207|    0.622131|    0.007428|
|         316|  -10.126150|  -12.682972|    0.622131|    0.007428|
|         317|  -10.129920|  -12.684654|    0.622131|    0.007428|
|         318|  -10.133880|  -12.686252|    0.622131|    0.007428|
|         319|  -10.138024|  -12.687766|    0.622131|    0.007428|
|         320|  -10.142325|  -12.689198|    0.622131|    0.007428|
|         321|  -10.146755|  -12.690552|    0.622131|    0.007428|
|         322|  -10.151334|  -12.691831|    0.622131|    0.007428|
|         323|  -10.156017|  -12.693043|    0.622131|    0.007428|
|         324|  -10.160823|  -12.694194|    0.622131|    0.007428|
|         325|  -10.165702|  -12.695296|    0.622131|    0.007428|
|         326|  -10.170644|  -12.696358|    0.622131|    0.007428|
|         327|  -10.175638|  -12.697392|    0.622131|    0.007428|
|         328|  -10.180667|  -12.698411|    0.622131|    0.007428|
|         329|  -10.185698|  -12.699429|    0.622131|    0.007428|
|         330|  -10.190727|  -12.700460|    0.622131|    0.007428|
|         331|  -10.195706|  -12.701517|    0.622131|    0.007428|
|         332|  -10.200632|  -12.702615|    0.622131|    0.007428|
|         333|  -10.205492|  -12.703768|    0.622131|    0.007428|
|         334|  -10.210235|  -12.704987|    0.622131|    0.007428|
|         335|  -10.214890|  -12.706285|    0.622131|    0.007428|
|         336|  -10.219374|  -12.707674|    0.622131|    0.007428|
|         337|  -10.223703|  -12.709162|    0.622131|    0.007428|
|         338|  -10.227847|  -12.710757|    0.622131|    0.007428|
|         339|  -10.231793|  -12.712466|    0.622131|    0.007428|
|         340|  -10.235509|  -12.714294|    0.622131|    0.007428|
|         341|  -10.238994|  -12.716244|    0.622131|    0.007428|
|         342|  -10.242209|  -12.718317|    0.622131|    0.007428|
|         343|  -10.245186|  -12.720514|    0.622131|    0.007428|
|         344|  -10.247837|  -12.722832|    0.622131|    0.007428|
|         345|  -10.250250|  -12.725269|    0.622131|    0.007428|
|         346|  -10.252311|  -12.727821|    0.622131|    0.007428|
|         347|  -10.254095|  -12.730482|    0.622131|    0.007428|
|         348|  -10.255575|  -12.733247|    0.622131|    0.007428|
|         349|  -10.256745|  -12.736106|    0.622131|    0.007428|
|         350|  -10.257623|  -12.739055|    0.622131|    0.007428|
|         351|  -10.258231|  -12.742085|    0.622131|    0.007428|
|         352|  -10.258530|  -12.745189|    0.622131|    0.007428|
|         353|  -10.258581|  -12.748357|    0.622131|    0.007428|
|         354|  -10.258408|  -12.751583|    0.622131|    0.007428|
|         355|  -10.257996|  -12.754860|    0.622131|    0.007428|
|         356|  -10.257379|  -12.758182|    0.622131|    0.007428|
|         357|  -10.256577|  -12.761540|    0.622131|    0.007428|
|         358|  -10.255620|  -12.764931|    0.622131|    0.007428|
|         359|  -10.254546|  -12.768349|    0.622131|    0.007428|
|         360|  -10.253381|  -12.771790|    0.622131|    0.007428|
|         361|  -10.252112|  -12.775249|    0.622131|    0.007428|
|         362|  -10.250799|  -12.778723|    0.622131|    0.007428|
|         363|  -10.249461|  -12.782210|    0.622131|    0.007428|
|         364|  -10.248121|  -12.785705|    0.622131|    0.007428|
|         365|  -10.246812|  -12.789208|    0.622131|    0.007428|
|         366|  -10.245554|  -12.792714|    0.622131|    0.007428|
|         367|  -10.244396|  -12.796223|    0.622131|    0.007428|
|         368|  -10.243333|  -12.799732|    0.622131|    0.007428|
|         369|  -10.242363|  -12.803237|    0.622131|    0.007428|
|         370|  -10.241545|  -12.806737|    0.622131|    0.007428|
|         371|  -10.240914|  -12.810228|    0.622131|    0.007428|
|         372|  -10.240435|  -12.813708|    0.622131|    0.007428|
|         373|  -10.240180|  -12.817175|    0.622131|    0.007428|
|         374|  -10.240129|  -12.820623|    0.622131|    0.007428|
|         375|  -10.240321|  -12.824051|    0.622131|    0.007428|
|         376|  -10.240745|  -12.827454|    0.622131|    0.007428|
|         377|  -10.241416|  -12.830831|    0.622131|    0.007428|
|         378|  -10.242351|  -12.834175|    0.622131|    0.007428|
|         379|  -10.243580|  -12.837485|    0.622131|    0.007428|
|         380|  -10.245091|  -12.840758|    0.622131|    0.007428|
|         381|  -10.246910|  -12.843989|    0.622131|    0.007428|
|         382|  -10.249020|  -12.847176|    0.622131|    0.007428|
|         383|  -10.251440|  -12.850315|    0.622131|    0.007428|
|         384|  -10.254161|  -12.853404|    0.622131|    0.007428|
|         385|  -10.257208|  -12.856440|    0.622131|    0.007428|
|         386|  -10.260551|  -12.859421|    0.622131|    0.007428|
|         387|  -10.264211|  -12.862343|    0.622131|    0.007428|
|         388|  -10.268218|  -12.865204|    0.622131|    0.007428|
|         389|  -10.272507|  -12.868002|    0.622131|    0.007428|
|         390|  -10.277112|  -12.870735|    0.622131|    0.007428|
|         391|  -10.282022|  -12.873400|    0.622131|    0.007428|
|         392|  -10.287215|  -12.875994|    0.622131|    0.007428|
|         393|  -10.292690|  -12.878516|    0.622131|    0.007428|
|         394|  -10.298436|  -12.880963|    0.622131|    0.007428|
|         395|  -10.304494|  -12.883334|    0.622131|    0.007428|
|         396|  -10.310798|  -12.885626|    0.622131|    0.007428|
|         397|  -10.317280|  -12.887838|    0.622131|    0.007428|
|         398|  -10.324011|  -12.889970|    0.622131|    0.007428|
|         399|  -10.330938|  -12.892020|    0.622131|    0.007428|
|         400|  -10.338072|  -12.893988|    0.622131|    0.007428|
|         401|  -10.345382|  -12.895875|    0.622131|    0.007428|
|         402|  -10.352826|  -12.897681|    0.622131|    0.007428|
|         403|  -10.360387|  -12.899409|    0.622131|    0.007428|
|         404|  -10.368038|  -12.901062|    0.622131|    0.007428|
|         405|  -10.375730|  -12.902643|    0.622131|    0.007428|
|         406|  -10.383504|  -12.904156|    0.622131|    0.007428|
|         407|  -10.391263|  -12.905608|    0.622131|    0.007428|
|         408|  -10.399019|  -12.907003|    0.622131|    0.007428|
|         409|  -10.406679|  -12.908347|    0.622131|    0.007428|
|         410|  -10.414239|  -12.909652|    0.622131|    0.007428|
|         411|  -10.421766|  -12.910920|    0.622131|    0.007428|
|         412|  -10.429091|  -12.912164|    0.622131|    0.007428|
|         413|  -10.436206|  -12.913390|    0.622131|    0.007428|
|         414|  -10.443184|  -12.914608|    0.622131|    0.007428|
|         415|  -10.449877|  -12.915826|    0.622131|    0.007428|
|         416|  -10.456251|  -12.917053|    0.622131|    0.007428|
|         417|  -10.462352|  -12.918297|    0.622131|    0.007428|
|         418|  -10.468134|  -12.919565|    0.622131|    0.007428|
|         419|  -10.473528|  -12.920866|    0.622131|    0.007428|
|         420|  -10.478585|  -12.922205|    0.622131|    0.007428|
|         421|  -10.483287|  -12.923589|    0.622131|    0.007428|
|         422|  -10.487573|  -12.925022|    0.622131|    0.007428|
|         423|  -10.491460|  -12.926507|    0.622131|    0.007428|
|         424|  -10.494964|  -12.928050|    0.622131|    0.007428|
|         425|  -10.498068|  -12.929651|    0.622131|    0.007428|
|         426|  -10.500847|  -12.931311|    0.622131|    0.007428|
|         427|  -10.503266|  -12.933031|    0.622131|    0.007428|
|         428|  -10.505343|  -12.934810|    0.622131|    0.007428|
|         429|  -10.507125|  -12.936645|    0.622131|    0.007428|
|         430|  -10.508642|  -12.938535|    0.622131|    0.007428|
|         431|  -10.509903|  -12.940475|    0.622131|    0.007428|
|         432|  -10.510992|  -12.942463|    0.622131|    0.007428|
|         433|  -10.511939|  -12.944492|    0.622131|    0.007428|
|         434|  -10.512727|  -12.946558|    0.622131|    0.007428|
|         435|  -10.513398|  -12.948654|    0.622131|    0.007428|
|         436|  -10.514028|  -12.950773|    0.622131|    0.007428|
|         437|  -10.514673|  -12.952911|    0.622131|    0.007428|
|         438|  -10.515328|  -12.955058|    0.622131|    0.007428|
|         439|  -10.516026|  -12.957208|    0.622131|    0.007428|
|         440|  -10.516793|  -12.959353|    0.622131|    0.007428|
|         441|  -10.517694|  -12.961485|    0.622131|    0.007428|
|         442|  -10.518682|  -12.963596|    0.622131|    0.007428|
|         443|  -10.519826|  -12.965680|    0.622131|    0.007428|
|         444|  -10.521188|  -12.967727|    0.622131|    0.007428|
|         445|  -10.522734|  -12.969731|    0.622131|    0.007428|
|         446|  -10.524459|  -12.971684|    0.622131|    0.007428|
|         447|  -10.526420|  -12.973578|    0.622131|    0.007428|
|         448|  -10.528620|  -12.975407|    0.622131|    0.007428|
|         449|  -10.531045|  -12.977162|    0.622131|    0.007428|
|         450|  -10.533701|  -12.978839|    0.622131|    0.007428|
|         451|  -10.536611|  -12.980430|    0.622131|    0.007428|
|         452|  -10.539792|  -12.981929|    0.622131|    0.007428|
|         453|  -10.543191|  -12.983331|    0.622131|    0.007428|
|         454|  -10.546794|  -12.984632|    0.622131|    0.007428|
|         455|  -10.550668|  -12.985826|    0.622131|    0.007428|
|         456|  -10.554729|  -12.986911|    0.622131|    0.007428|
|         457|  -10.558948|  -12.987883|    0.622131|    0.007428|
|         458|  -10.563465|  -12.988740|    0.622131|    0.007428|
|         459|  -10.568111|  -12.989480|    0.622131|    0.007428|
|         460|  -10.572873|  -12.990103|    0.622131|    0.007428|
|         461|  -10.577728|  -12.990610|    0.622131|    0.007428|
|         462|  -10.582754|  -12.991001|    0.622131|    0.007428|
|         463|  -10.587905|  -12.991279|    0.622131|    0.007428|
|         464|  -10.593118|  -12.991446|    0.622131|    0.007428|
|         465|  -10.598299|  -12.991507|    0.622131|    0.007428|
|         466|  -10.603541|  -12.991465|    0.622131|    0.007428|
|         467|  -10.608824|  -12.991328|    0.622131|    0.007428|
|         468|  -10.613994|  -12.991100|    0.622131|    0.007428|
|         469|  -10.619109|  -12.990788|    0.622131|    0.007428|
|         470|  -10.624122|  -12.990399|    0.622131|    0.007428|
|         471|  -10.629053|  -12.989941|    0.622131|    0.007428|
|         472|  -10.633842|  -12.989422|    0.622131|    0.007428|
|         473|  -10.638428|  -12.988851|    0.622131|    0.007428|
|         474|  -10.642780|  -12.988235|    0.622131|    0.007428|
|         475|  -10.647021|  -12.987584|    0.622131|    0.007428|
|         476|  -10.650920|  -12.986905|    0.622131|    0.007428|
|         477|  -10.654658|  -12.986207|    0.622131|    0.007428|
|         478|  -10.658148|  -12.985496|    0.622131|    0.007428|
|         479|  -10.661381|  -12.984782|    0.622131|    0.007428|
|         480|  -10.664293|  -12.984071|    0.622131|    0.007428|
|         481|  -10.666944|  -12.983370|    0.622131|    0.007428|
|         482|  -10.669297|  -12.982684|    0.622131|    0.007428|
|         483|  -10.671444|  -12.982021|    0.622131|    0.007428|
|         484|  -10.673316|  -12.981385|    0.622131|    0.007428|
|         485|  -10.674961|  -12.980780|    0.622131|    0.007428|
|         486|  -10.676368|  -12.980210|    0.622131|    0.007428|
|         487|  -10.677563|  -12.979680|    0.622131|    0.007428|
|         488|  -10.678521|  -12.979191|    0.622131|    0.007428|
|         489|  -10.679373|  -12.978747|    0.622131|    0.007428|
|         490|  -10.680050|  -12.978350|    0.622131|    0.007428|
|         491|  -10.680632|  -12.977999|    0.622131|    0.007428|
|         492|  -10.681026|  -12.977697|    0.622131|    0.007428|
|         493|  -10.681389|  -12.977445|    0.622131|    0.007428|
|         494|  -10.681629|  -12.977240|    0.622131|    0.007428|
|         495|  -10.681812|  -12.977085|    0.622131|    0.007428|
|         496|  -10.681993|  -12.976977|    0.622131|    0.007428|
|         497|  -10.682146|  -12.976916|    0.622131|    0.007428|
|         498|  -10.682347|  -12.976901|    0.622131|    0.007428|
|         499|  -10.682457|  -12.976930|    0.622131|    0.007428|
|         500|  -10.682641|  -12.977000|    0.622131|    0.007428|
|         501|  -10.682833|  -12.977109|    0.622131|    0.007428|
|         502|  -10.683089|  -12.977257|    0.622131|    0.007428|
|         503|  -10.683318|  -12.977439|    0.622131|    0.007428|
|         504|  -10.683594|  -12.977653|    0.622131|    0.007428|
|         505|  -10.683877|  -12.977896|    0.622131|    0.007428|
|         506|  -10.684279|  -12.978167|    0.622131|    0.007428|
|         507|  -10.684668|  -12.978459|    0.622131|    0.007428|
|         508|  -10.685073|  -12.978773|    0.622131|    0.007428|
|         509|  -10.685464|  -12.979103|    0.622131|    0.007428|
|         510|  -10.685873|  -12.979447|    0.622131|    0.007428|
|         511|  -10.686312|  -12.979802|    0.622131|    0.007428|
|         512|  -10.686746|  -12.980164|    0.622131|    0.007428|
|         513|  -10.687084|  -12.980531|    0.622131|    0.007428|
|         514|  -10.687453|  -12.980899|    0.622131|    0.007428|
|         515|  -10.687738|  -12.981267|    0.622131|    0.007428|
|         516|  -10.687979|  -12.981631|    0.622131|    0.007428|
|         517|  -10.688202|  -12.981990|    0.622131|    0.007428|
|         518|  -10.688342|  -12.982340|    0.622131|    0.007428|
|         519|  -10.688440|  -12.982681|    0.622131|    0.007428|
|         520|  -10.688405|  -12.983009|    0.622131|    0.007428|
|         521|  -10.688314|  -12.983325|    0.622131|    0.007428|
|         522|  -10.688180|  -12.983628|    0.622131|    0.007428|
|         523|  -10.687965|  -12.983917|    0.622131|    0.007428|
|         524|  -10.687692|  -12.984191|    0.622131|    0.007428|
|         525|  -10.687385|  -12.984450|    0.622131|    0.007428|
|         526|  -10.687034|  -12.984696|    0.622131|    0.007428|
|         527|  -10.686615|  -12.984928|    0.622131|    0.007428|
|         528|  -10.686253|  -12.985147|    0.622131|    0.007428|
|         529|  -10.685843|  -12.985357|    0.622131|    0.007428|
|         530|  -10.685418|  -12.985556|    0.622131|    0.007428|
|         531|  -10.685070|  -12.985747|    0.622131|    0.007428|
|         532|  -10.684734|  -12.985934|    0.622131|    0.007428|
|         533|  -10.684507|  -12.986117|    0.622131|    0.007428|
|         534|  -10.684352|  -12.986300|    0.622131|    0.007428|
|         535|  -10.684261|  -12.986486|    0.622131|    0.007428|
|         536|  -10.684350|  -12.986676|    0.622131|    0.007428|
|         537|  -10.684521|  -12.986874|    0.622131|    0.007428|
|         538|  -10.684878|  -12.987084|    0.622131|    0.007428|
|         539|  -10.685404|  -12.987308|    0.622131|    0.007428|
|         540|  -10.686110|  -12.987549|    0.622131|    0.007428|
|         541|  -10.686986|  -12.987811|    0.622131|    0.007428|
|         542|  -10.688051|  -12.988098|    0.622131|    0.007428|
|         543|  -10.689318|  -12.988411|    0.622131|    0.007428|
|         544|  -10.690830|  -12.988755|    0.622131|    0.007428|
|         545|  -10.692497|  -12.989132|    0.622131|    0.007428|
|         546|  -10.694389|  -12.989547|    0.622131|    0.007428|
|         547|  -10.696497|  -12.990000|    0.622131|    0.007428|
|         548|  -10.698759|  -12.990497|    0.622131|    0.007428|
|         549|  -10.701260|  -12.991039|    0.622131|    0.007428|
|         550|  -10.703887|  -12.991629|    0.622131|    0.007428|
|         551|  -10.706718|  -12.992269|    0.622131|    0.007428|
|         552|  -10.709684|  -12.992963|    0.622131|    0.007428|
|         553|  -10.712797|  -12.993711|    0.622131|    0.007428|
|         554|  -10.716063|  -12.994517|    0.622131|    0.007428|
|         555|  -10.719285|  -12.995381|    0.622131|    0.007428|
|         556|  -10.722650|  -12.996304|    0.622131|    0.007428|
|         557|  -10.726092|  -12.997289|    0.622131|    0.007428|
|         558|  -10.729399|  -12.998335|    0.622131|    0.007428|
|         559|  -10.732793|  -12.999444|    0.622131|    0.007428|
|         560|  -10.736097|  -13.000616|    0.622131|    0.007428|
|         561|  -10.739400|  -13.001850|    0.622131|    0.007428|
|         562|  -10.742509|  -13.003145|    0.622131|    0.007428|
|         563|  -10.745532|  -13.004502|    0.622131|    0.007428|
|         564|  -10.748459|  -13.005919|    0.622131|    0.007428|
|         565|  -10.751104|  -13.007394|    0.622131|    0.007428|
|         566|  -10.753563|  -13.008926|    0.622131|    0.007428|
|         567|  -10.755800|  -13.010513|    0.622131|    0.007428|
|         568|  -10.757849|  -13.012151|    0.622131|    0.007428|
|         569|  -10.759629|  -13.013839|    0.622131|    0.007428|
|         570|  -10.761180|  -13.015573|    0.622131|    0.007428|
|         571|  -10.762502|  -13.017351|    0.622131|    0.007428|
|         572|  -10.763556|  -13.019168|    0.622131|    0.007428|
|         573|  -10.764482|  -13.021022|    0.622131|    0.007428|
|         574|  -10.765084|  -13.022908|    0.622131|    0.007428|
|         575|  -10.765620|  -13.024823|    0.622131|    0.007428|
|         576|  -10.765937|  -13.026763|    0.622131|    0.007428|
|         577|  -10.766065|  -13.028725|    0.622131|    0.007428|
|         578|  -10.766128|  -13.030704|    0.622131|    0.007428|
|         579|  -10.766046|  -13.032698|    0.622131|    0.007428|
|         580|  -10.766017|  -13.034702|    0.622131|    0.007428|
|         581|  -10.765929|  -13.036714|    0.622131|    0.007428|
|         582|  -10.765827|  -13.038728|    0.622131|    0.007428|
|         583|  -10.765712|  -13.040744|    0.622131|    0.007428|
|         584|  -10.765608|  -13.042758|    0.622131|    0.007428|
|         585|  -10.765639|  -13.044767|    0.622131|    0.007428|
|         586|  -10.765781|  -13.046770|    0.622131|    0.007428|
|         587|  -10.766041|  -13.048764|    0.622131|    0.007428|
|         588|  -10.766449|  -13.050746|    0.622131|    0.007428|
|         589|  -10.767065|  -13.052716|    0.622131|    0.007428|
|         590|  -10.767864|  -13.054672|    0.622131|    0.007428|
|         591|  -10.768821|  -13.056613|    0.622131|    0.007428|
|         592|  -10.769972|  -13.058537|    0.622131|    0.007428|
|         593|  -10.771394|  -13.060444|    0.622131|    0.007428|
|         594|  -10.772980|  -13.062333|    0.622131|    0.007428|
|         595|  -10.774859|  -13.064203|    0.622131|    0.007428|
|         596|  -10.776913|  -13.066054|    0.622131|    0.007428|
|         597|  -10.779233|  -13.067885|    0.622131|    0.007428|
|         598|  -10.781847|  -13.069696|    0.622131|    0.007428|
|         599|  -10.784710|  -13.071487|    0.622131|    0.007428|
|         600|  -10.787682|  -13.073256|    0.622131|    0.007428|
|         601|  -10.790955|  -13.075004|    0.622131|    0.007428|
|         602|  -10.794459|  -13.076730|    0.622131|    0.007428|
|         603|  -10.798033|  -13.078433|    0.622131|    0.007428|
|         604|  -10.801879|  -13.080114|    0.622131|    0.007428|
|         605|  -10.805865|  -13.081772|    0.622131|    0.007428|
|         606|  -10.809994|  -13.083405|    0.622131|    0.007428|
|         607|  -10.814317|  -13.085014|    0.622131|    0.007428|
|         608|  -10.818705|  -13.086598|    0.622131|    0.007428|
|         609|  -10.823107|  -13.088156|    0.622131|    0.007428|
|         610|  -10.827721|  -13.089687|    0.622131|    0.007428|
|         611|  -10.832369|  -13.091191|    0.622131|    0.007428|
|         612|  -10.837007|  -13.092667|    0.622131|    0.007428|
|         613|  -10.841639|  -13.094114|    0.622131|    0.007428|
|         614|  -10.846144|  -13.095532|    0.622131|    0.007428|
|         615|  -10.850664|  -13.096921|    0.622131|    0.007428|
|         616|  -10.855170|  -13.098280|    0.622131|    0.007428|
|         617|  -10.859507|  -13.099610|    0.622131|    0.007428|
|         618|  -10.863863|  -13.100909|    0.622131|    0.007428|
|         619|  -10.867933|  -13.102178|    0.622131|    0.007428|
|         620|  -10.871900|  -13.103417|    0.622131|    0.007428|
|         621|  -10.875730|  -13.104628|    0.622131|    0.007428|
|         622|  -10.879362|  -13.105810|    0.622131|    0.007428|
|         623|  -10.882829|  -13.106964|    0.622131|    0.007428|
|         624|  -10.886139|  -13.108092|    0.622131|    0.007428|
|         625|  -10.889229|  -13.109195|    0.622131|    0.007428|
|         626|  -10.892143|  -13.110275|    0.622131|    0.007428|
|         627|  -10.894844|  -13.111333|    0.622131|    0.007428|
|         628|  -10.897371|  -13.112372|    0.622131|    0.007428|
|         629|  -10.899687|  -13.113394|    0.622131|    0.007428|
|         630|  -10.901835|  -13.114402|    0.622131|    0.007428|
|         631|  -10.903860|  -13.115398|    0.622131|    0.007428|
|         632|  -10.905708|  -13.116386|    0.622131|    0.007428|
|         633|  -10.907391|  -13.117368|    0.622131|    0.007428|
|         634|  -10.908984|  -13.118349|    0.622131|    0.007428|
|         635|  -10.910384|  -13.119331|    0.622131|    0.007428|
|         636|  -10.911693|  -13.120319|    0.622131|    0.007428|
|         637|  -10.912951|  -13.121316|    0.622131|    0.007428|
|         638|  -10.914049|  -13.122325|    0.622131|    0.007428|
|         639|  -10.915076|  -13.123351|    0.622131|    0.007428|
|         640|  -10.916005|  -13.124398|    0.622131|    0.007428|
|         641|  -10.916878|  -13.125470|    0.622131|    0.007428|
|         642|  -10.917684|  -13.126568|    0.622131|    0.007428|
|         643|  -10.918407|  -13.127699|    0.622131|    0.007428|
|         644|  -10.919041|  -13.128865|    0.622131|    0.007428|
|         645|  -10.919641|  -13.130070|    0.622131|    0.007428|
|         646|  -10.920166|  -13.131316|    0.622131|    0.007428|
|         647|  -10.920603|  -13.132608|    0.622131|    0.007428|
|         648|  -10.921015|  -13.133946|    0.622131|    0.007428|
|         649|  -10.921294|  -13.135335|    0.622131|    0.007428|
|         650|  -10.921548|  -13.136775|    0.622131|    0.007428|
|         651|  -10.921689|  -13.138270|    0.622131|    0.007428|
|         652|  -10.921723|  -13.139821|    0.622131|    0.007428|
|         653|  -10.921721|  -13.141428|    0.622131|    0.007428|
|         654|  -10.921623|  -13.143092|    0.622131|    0.007428|
|         655|  -10.921443|  -13.144815|    0.622131|    0.007428|
|         656|  -10.921163|  -13.146596|    0.622131|    0.007428|
|         657|  -10.920805|  -13.148434|    0.622131|    0.007428|
|         658|  -10.920396|  -13.150331|    0.622131|    0.007428|
|         659|  -10.919889|  -13.152285|    0.622131|    0.007428|
|         660|  -10.919232|  -13.154294|    0.622131|    0.007428|
|         661|  -10.918555|  -13.156357|    0.622131|    0.007428|
|         662|  -10.917752|  -13.158472|    0.622131|    0.007428|
|         663|  -10.916934|  -13.160637|    0.622131|    0.007428|
|         664|  -10.916043|  -13.162850|    0.622131|    0.007428|
|         665|  -10.915086|  -13.165107|    0.622131|    0.007428|
|         666|  -10.914095|  -13.167405|    0.622131|    0.007428|
|         667|  -10.913001|  -13.169744|    0.622131|    0.007428|
|         668|  -10.911867|  -13.172118|    0.622131|    0.007428|
|         669|  -10.910700|  -13.174522|    0.622131|    0.007428|
|         670|  -10.909550|  -13.176956|    0.622131|    0.007428|
|         671|  -10.908318|  -13.179414|    0.622131|    0.007428|
|         672|  -10.907077|  -13.181893|    0.622131|    0.007428|
|         673|  -10.905822|  -13.184389|    0.622131|    0.007428|
|         674|  -10.904558|  -13.186898|    0.622131|    0.007428|
|         675|  -10.903243|  -13.189416|    0.622131|    0.007428|
|         676|  -10.901938|  -13.191942|    0.622131|    0.007428|
|         677|  -10.900582|  -13.194468|    0.622131|    0.007428|
|         678|  -10.899303|  -13.196992|    0.622131|    0.007428|
|         679|  -10.897972|  -13.199513|    0.622131|    0.007428|
|         680|  -10.896666|  -13.202021|    0.622131|    0.007428|
|         681|  -10.895363|  -13.204521|    0.622131|    0.007428|
|         682|  -10.894008|  -13.207005|    0.622131|    0.007428|
|         683|  -10.892738|  -13.209473|    0.622131|    0.007428|
|         684|  -10.891342|  -13.211918|    0.622131|    0.007428|
|         685|  -10.889983|  -13.214342|    0.622131|    0.007428|
|         686|  -10.888649|  -13.216739|    0.622131|    0.007428|
|         687|  -10.887293|  -13.219109|    0.622131|    0.007428|
|         688|  -10.885984|  -13.221448|    0.622131|    0.007428|
|         689|  -10.884640|  -13.223755|    0.622131|    0.007428|
|         690|  -10.883325|  -13.226032|    0.622131|    0.007428|
|         691|  -10.881985|  -13.228274|    0.622131|    0.007428|
|         692|  -10.880665|  -13.230479|    0.622131|    0.007428|
|         693|  -10.879377|  -13.232648|    0.622131|    0.007428|
|         694|  -10.878063|  -13.234779|    0.622131|    0.007428|
|         695|  -10.876762|  -13.236871|    0.622131|    0.007428|
|         696|  -10.875514|  -13.238925|    0.622131|    0.007428|
|         697|  -10.874237|  -13.240941|    0.622131|    0.007428|
|         698|  -10.873083|  -13.242915|    0.622131|    0.007428|
|         699|  -10.871929|  -13.244853|    0.622131|    0.007428|
|         700|  -10.870789|  -13.246750|    0.622131|    0.007428|
|         701|  -10.869726|  -13.248608|    0.622131|    0.007428|
|         702|  -10.868725|  -13.250425|    0.622131|    0.007428|
|         703|  -10.867799|  -13.252207|    0.622131|    0.007428|
|         704|  -10.866968|  -13.253951|    0.622131|    0.007428|
|         705|  -10.866168|  -13.255656|    0.622131|    0.007428|
|         706|  -10.865523|  -13.257324|    0.622131|    0.007428|
|         707|  -10.864893|  -13.258959|    0.622131|    0.007428|
|         708|  -10.864394|  -13.260557|    0.622131|    0.007428|
|         709|  -10.864063|  -13.262121|    0.622131|    0.007428|
|         710|  -10.863837|  -13.263655|    0.622131|    0.007428|
|         711|  -10.863697|  -13.265157|    0.622131|    0.007428|
|         712|  -10.863714|  -13.266631|    0.622131|    0.007428|
|         713|  -10.863819|  -13.268075|    0.622131|    0.007428|
|         714|  -10.864071|  -13.269493|    0.622131|    0.007428|
|         715|  -10.864535|  -13.270886|    0.622131|    0.007428|
|         716|  -10.865064|  -13.272257|    0.622131|    0.007428|
|         717|  -10.865765|  -13.273605|    0.622131|    0.007428|
|         718|  -10.866589|  -13.274936|    0.622131|    0.007428|
|         719|  -10.867620|  -13.276249|    0.622131|    0.007428|
|         720|  -10.868753|  -13.277548|    0.622131|    0.007428|
|         721|  -10.870035|  -13.278832|    0.622131|    0.007428|
|         722|  -10.871521|  -13.280107|    0.622131|    0.007428|
|         723|  -10.873122|  -13.281373|    0.622131|    0.007428|
|         724|  -10.874819|  -13.282632|    0.622131|    0.007428|
|         725|  -10.876754|  -13.283889|    0.622131|    0.007428|
|         726|  -10.878789|  -13.285143|    0.622131|    0.007428|
|         727|  -10.880825|  -13.286397|    0.622131|    0.007428|
|         728|  -10.883099|  -13.287653|    0.622131|    0.007428|
|         729|  -10.885511|  -13.288916|    0.622131|    0.007428|
|         730|  -10.887894|  -13.290184|    0.622131|    0.007428|
|         731|  -10.890467|  -13.291463|    0.622131|    0.007428|
|         732|  -10.893136|  -13.292752|    0.622131|    0.007428|
|         733|  -10.895838|  -13.294056|    0.622131|    0.007428|
|         734|  -10.898627|  -13.295374|    0.622131|    0.007428|
|         735|  -10.901465|  -13.296710|    0.622131|    0.007428|
|         736|  -10.904316|  -13.298066|    0.622131|    0.007428|
|         737|  -10.907333|  -13.299440|    0.622131|    0.007428|
|         738|  -10.910269|  -13.300839|    0.622131|    0.007428|
|         739|  -10.913241|  -13.302261|    0.622131|    0.007428|
|         740|  -10.916141|  -13.303707|    0.622131|    0.007428|
|         741|  -10.919053|  -13.305180|    0.622131|    0.007428|
|         742|  -10.921982|  -13.306681|    0.622131|    0.007428|
|         743|  -10.924806|  -13.308210|    0.622131|    0.007428|
|         744|  -10.927540|  -13.309768|    0.622131|    0.007428|
|         745|  -10.930283|  -13.311355|    0.622131|    0.007428|
|         746|  -10.932955|  -13.312973|    0.622131|    0.007428|
|         747|  -10.935472|  -13.314621|    0.622131|    0.007428|
|         748|  -10.937889|  -13.316301|    0.622131|    0.007428|
|         749|  -10.940110|  -13.318011|    0.622131|    0.007428|
|         750|  -10.942254|  -13.319753|    0.622131|    0.007428|
|         751|  -10.944214|  -13.321525|    0.622131|    0.007428|
|         752|  -10.946044|  -13.323328|    0.622131|    0.007428|
|         753|  -10.947748|  -13.325160|    0.622131|    0.007428|
|         754|  -10.949307|  -13.327021|    0.622131|    0.007428|
|         755|  -10.950632|  -13.328911|    0.622131|    0.007428|
|         756|  -10.951833|  -13.330829|    0.622131|    0.007428|
|         757|  -10.952733|  -13.332773|    0.622131|    0.007428|
|         758|  -10.953575|  -13.334744|    0.622131|    0.007428|
|         759|  -10.954232|  -13.336738|    0.622131|    0.007428|
|         760|  -10.954610|  -13.338755|    0.622131|    0.007428|
|         761|  -10.954901|  -13.340794|    0.622131|    0.007428|
|         762|  -10.954892|  -13.342853|    0.622131|    0.007428|
|         763|  -10.954763|  -13.344930|    0.622131|    0.007428|
|         764|  -10.954507|  -13.347024|    0.622131|    0.007428|
|         765|  -10.954041|  -13.349135|    0.622131|    0.007428|
|         766|  -10.953420|  -13.351258|    0.622131|    0.007428|
|         767|  -10.952623|  -13.353394|    0.622131|    0.007428|
|         768|  -10.951731|  -13.355540|    0.622131|    0.007428|
|         769|  -10.950622|  -13.357695|    0.622131|    0.007428|
|         770|  -10.949496|  -13.359857|    0.622131|    0.007428|
|         771|  -10.948186|  -13.362022|    0.622131|    0.007428|
|         772|  -10.946795|  -13.364193|    0.622131|    0.007428|
|         773|  -10.945348|  -13.366365|    0.622131|    0.007428|
|         774|  -10.943762|  -13.368540|    0.622131|    0.007428|
|         775|  -10.942098|  -13.370713|    0.622131|    0.007428|
|         776|  -10.940369|  -13.372885|    0.622131|    0.007428|
|         777|  -10.938674|  -13.375054|    0.622131|    0.007428|
|         778|  -10.936854|  -13.377221|    0.622131|    0.007428|
|         779|  -10.935058|  -13.379382|    0.622131|    0.007428|
|         780|  -10.933230|  -13.381537|    0.622131|    0.007428|
|         781|  -10.931353|  -13.383688|    0.622131|    0.007428|
|         782|  -10.929534|  -13.385835|    0.622131|    0.007428|
|         783|  -10.927714|  -13.387974|    0.622131|    0.007428|
|         784|  -10.925924|  -13.390108|    0.622131|    0.007428|
|         785|  -10.924131|  -13.392236|    0.622131|    0.007428|
|         786|  -10.922448|  -13.394361|    0.622131|    0.007428|
|         787|  -10.920759|  -13.396479|    0.622131|    0.007428|
|         788|  -10.919143|  -13.398595|    0.622131|    0.007428|
|         789|  -10.917616|  -13.400710|    0.622131|    0.007428|
|         790|  -10.916146|  -13.402823|    0.622131|    0.007428|
|         791|  -10.914780|  -13.404934|    0.622131|    0.007428|
|         792|  -10.913522|  -13.407046|    0.622131|    0.007428|
|         793|  -10.912396|  -13.409166|    0.622131|    0.007428|
|         794|  -10.911275|  -13.411286|    0.622131|    0.007428|
|         795|  -10.910342|  -13.413412|    0.622131|    0.007428|
|         796|  -10.909546|  -13.415549|    0.622131|    0.007428|
|         797|  -10.908887|  -13.417693|    0.622131|    0.007428|
|         798|  -10.908281|  -13.419850|    0.622131|    0.007428|
|         799|  -10.907859|  -13.422021|    0.622131|    0.007428|
|         800|  -10.907603|  -13.424207|    0.622131|    0.007428|
|         801|  -10.907542|  -13.426407|    0.622131|    0.007428|
|         802|  -10.907566|  -13.428625|    0.622131|    0.007428|
|         803|  -10.907787|  -13.430866|    0.622131|    0.007428|
|         804|  -10.908195|  -13.433126|    0.622131|    0.007428|
|         805|  -10.908794|  -13.435411|    0.622131|    0.007428|
|         806|  -10.909613|  -13.437719|    0.622131|    0.007428|
|         807|  -10.910495|  -13.440051|    0.622131|    0.007428|
|         808|  -10.911626|  -13.442408|    0.622131|    0.007428|
|         809|  -10.912956|  -13.444791|    0.622131|    0.007428|
|         810|  -10.914494|  -13.447199|    0.622131|    0.007428|
|         811|  -10.916324|  -13.449634|    0.622131|    0.007428|
|         812|  -10.918276|  -13.452096|    0.622131|    0.007428|
|         813|  -10.920412|  -13.454580|    0.622131|    0.007428|
|         814|  -10.922891|  -13.457089|    0.622131|    0.007428|
|         815|  -10.925410|  -13.459621|    0.622131|    0.007428|
|         816|  -10.928183|  -13.462175|    0.622131|    0.007428|
|         817|  -10.931195|  -13.464749|    0.622131|    0.007428|
|         818|  -10.934399|  -13.467341|    0.622131|    0.007428|
|         819|  -10.937751|  -13.469951|    0.622131|    0.007428|
|         820|  -10.941384|  -13.472573|    0.622131|    0.007428|
|         821|  -10.945219|  -13.475206|    0.622131|    0.007428|
|         822|  -10.949237|  -13.477849|    0.622131|    0.007428|
|         823|  -10.953266|  -13.480495|    0.622131|    0.007428|
|         824|  -10.957693|  -13.483145|    0.622131|    0.007428|
|         825|  -10.962253|  -13.485793|    0.622131|    0.007428|
|         826|  -10.966749|  -13.488435|    0.622131|    0.007428|
|         827|  -10.971619|  -13.491071|    0.622131|    0.007428|
|         828|  -10.976540|  -13.493691|    0.622131|    0.007428|
|         829|  -10.981492|  -13.496297|    0.622131|    0.007428|
|         830|  -10.986609|  -13.498882|    0.622131|    0.007428|
|         831|  -10.991877|  -13.501443|    0.622131|    0.007428|
|         832|  -10.997112|  -13.503975|    0.622131|    0.007428|
|         833|  -11.002295|  -13.506476|    0.622131|    0.007428|
|         834|  -11.007574|  -13.508938|    0.622131|    0.007428|
|         835|  -11.012769|  -13.511361|    0.622131|    0.007428|
|         836|  -11.017966|  -13.513741|    0.622131|    0.007428|
|         837|  -11.022942|  -13.516073|    0.622131|    0.007428|
|         838|  -11.027953|  -13.518354|    0.622131|    0.007428|
|         839|  -11.032696|  -13.520581|    0.622131|    0.007428|
|         840|  -11.037271|  -13.522749|    0.622131|    0.007428|
|         841|  -11.041765|  -13.524857|    0.622131|    0.007428|
|         842|  -11.046029|  -13.526901|    0.622131|    0.007428|
|         843|  -11.050004|  -13.528879|    0.622131|    0.007428|
|         844|  -11.053850|  -13.530788|    0.622131|    0.007428|
|         845|  -11.057348|  -13.532627|    0.622131|    0.007428|
|         846|  -11.060439|  -13.534393|    0.622131|    0.007428|
|         847|  -11.063393|  -13.536086|    0.622131|    0.007428|
|         848|  -11.065800|  -13.537701|    0.622131|    0.007428|
|         849|  -11.068182|  -13.539240|    0.622131|    0.007428|
|         850|  -11.069959|  -13.540700|    0.622131|    0.007428|
|         851|  -11.071650|  -13.542083|    0.622131|    0.007428|
|         852|  -11.072911|  -13.543387|    0.622131|    0.007428|
|         853|  -11.073997|  -13.544614|    0.622131|    0.007428|
|         854|  -11.074790|  -13.545760|    0.622131|    0.007428|
|         855|  -11.075179|  -13.546828|    0.622131|    0.007428|
|         856|  -11.075438|  -13.547820|    0.622131|    0.007428|
|         857|  -11.075431|  -13.548735|    0.622131|    0.007428|
|         858|  -11.075455|  -13.549576|    0.622131|    0.007428|
|         859|  -11.075073|  -13.550341|    0.622131|    0.007428|
|         860|  -11.074742|  -13.551033|    0.622131|    0.007428|
|         861|  -11.074267|  -13.551654|    0.622131|    0.007428|
|         862|  -11.073697|  -13.552209|    0.622131|    0.007428|
|         863|  -11.073086|  -13.552696|    0.622131|    0.007428|
|         864|  -11.072515|  -13.553119|    0.622131|    0.007428|
|         865|  -11.071857|  -13.553481|    0.622131|    0.007428|
|         866|  -11.071305|  -13.553785|    0.622131|    0.007428|
|         867|  -11.070878|  -13.554032|    0.622131|    0.007428|
|         868|  -11.070429|  -13.554225|    0.622131|    0.007428|
|         869|  -11.070136|  -13.554368|    0.622131|    0.007428|
|         870|  -11.069970|  -13.554466|    0.622131|    0.007428|
|         871|  -11.069881|  -13.554517|    0.622131|    0.007428|
|         872|  -11.070082|  -13.554528|    0.622131|    0.007428|
|         873|  -11.070276|  -13.554503|    0.622131|    0.007428|
|         874|  -11.070773|  -13.554442|    0.622131|    0.007428|
|         875|  -11.071348|  -13.554349|    0.622131|    0.007428|
|         876|  -11.072248|  -13.554232|    0.622131|    0.007428|
|         877|  -11.073235|  -13.554090|    0.622131|    0.007428|
|         878|  -11.074420|  -13.553927|    0.622131|    0.007428|
|         879|  -11.075879|  -13.553748|    0.622131|    0.007428|
|         880|  -11.077650|  -13.553553|    0.622131|    0.007428|
|         881|  -11.079507|  -13.553345|    0.622131|    0.007428|
|         882|  -11.081627|  -13.553133|    0.622131|    0.007428|
|         883|  -11.083974|  -13.552915|    0.622131|    0.007428|
|         884|  -11.086553|  -13.552695|    0.622131|    0.007428|
|         885|  -11.089330|  -13.552478|    0.622131|    0.007428|
|         886|  -11.092410|  -13.552265|    0.622131|    0.007428|
|         887|  -11.095590|  -13.552059|    0.622131|    0.007428|
|         888|  -11.098981|  -13.551864|    0.622131|    0.007428|
|         889|  -11.102705|  -13.551685|    0.622131|    0.007428|
|         890|  -11.106610|  -13.551518|    0.622131|    0.007428|
|         891|  -11.110692|  -13.551375|    0.622131|    0.007428|
|         892|  -11.114883|  -13.551250|    0.622131|    0.007428|
|         893|  -11.119297|  -13.551149|    0.622131|    0.007428|
|         894|  -11.123887|  -13.551077|    0.622131|    0.007428|
|         895|  -11.128697|  -13.551030|    0.622131|    0.007428|
|         896|  -11.133572|  -13.551016|    0.622131|    0.007428|
|         897|  -11.138955|  -13.551036|    0.622131|    0.007428|
|         898|  -11.144202|  -13.551088|    0.622131|    0.007428|
|         899|  -11.149661|  -13.551182|    0.622131|    0.007428|
|         900|  -11.155276|  -13.551311|    0.622131|    0.007428|
|         901|  -11.161010|  -13.551482|    0.622131|    0.007428|
|         902|  -11.166929|  -13.551694|    0.622131|    0.007428|
|         903|  -11.172846|  -13.551951|    0.622131|    0.007428|
|         904|  -11.178920|  -13.552254|    0.622131|    0.007428|
|         905|  -11.184847|  -13.552605|    0.622131|    0.007428|
|         906|  -11.191147|  -13.553003|    0.622131|    0.007428|
|         907|  -11.197144|  -13.553453|    0.622131|    0.007428|
|         908|  -11.203375|  -13.553954|    0.622131|    0.007428|
|         909|  -11.209763|  -13.554508|    0.622131|    0.007428|
|         910|  -11.215945|  -13.555116|    0.622131|    0.007428|
|         911|  -11.222221|  -13.555780|    0.622131|    0.007428|
|         912|  -11.228614|  -13.556499|    0.622131|    0.007428|
|         913|  -11.234835|  -13.557276|    0.622131|    0.007428|
|         914|  -11.240889|  -13.558111|    0.622131|    0.007428|
|         915|  -11.247037|  -13.559006|    0.622131|    0.007428|
|         916|  -11.253052|  -13.559961|    0.622131|    0.007428|
|         917|  -11.258923|  -13.560977|    0.622131|    0.007428|
|         918|  -11.264583|  -13.562055|    0.622131|    0.007428|
|         919|  -11.270194|  -13.563197|    0.622131|    0.007428|
|         920|  -11.275759|  -13.564402|    0.622131|    0.007428|
|         921|  -11.281072|  -13.565672|    0.622131|    0.007428|
|         922|  -11.286145|  -13.567007|    0.622131|    0.007428|
|         923|  -11.291344|  -13.568410|    0.622131|    0.007428|
|         924|  -11.296143|  -13.569878|    0.622131|    0.007428|
|         925|  -11.300547|  -13.571415|    0.622131|    0.007428|
|         926|  -11.304927|  -13.573021|    0.622131|    0.007428|
|         927|  -11.309007|  -13.574695|    0.622131|    0.007428|
|         928|  -11.312767|  -13.576440|    0.622131|    0.007428|
|         929|  -11.316568|  -13.578255|    0.622131|    0.007428|
|         930|  -11.320083|  -13.580141|    0.622131|    0.007428|
|         931|  -11.323278|  -13.582100|    0.622131|    0.007428|
|         932|  -11.326256|  -13.584132|    0.622131|    0.007428|
|         933|  -11.329013|  -13.586238|    0.622131|    0.007428|
|         934|  -11.331594|  -13.588417|    0.622131|    0.007428|
|         935|  -11.333915|  -13.590671|    0.622131|    0.007428|
|         936|  -11.336034|  -13.593000|    0.622131|    0.007428|
|         937|  -11.337863|  -13.595405|    0.622131|    0.007428|
|         938|  -11.339563|  -13.597885|    0.622131|    0.007428|
|         939|  -11.341201|  -13.600443|    0.622131|    0.007428|
|         940|  -11.342624|  -13.603077|    0.622131|    0.007428|
|         941|  -11.343940|  -13.605789|    0.622131|    0.007428|
|         942|  -11.345054|  -13.608579|    0.622131|    0.007428|
|         943|  -11.346019|  -13.611446|    0.622131|    0.007428|
|         944|  -11.346904|  -13.614390|    0.622131|    0.007428|
|         945|  -11.347761|  -13.617414|    0.622131|    0.007428|
|         946|  -11.348395|  -13.620515|    0.622131|    0.007428|
|         947|  -11.349189|  -13.623695|    0.622131|    0.007428|
|         948|  -11.349769|  -13.626953|    0.622131|    0.007428|
|         949|  -11.350407|  -13.630287|    0.622131|    0.007428|
|         950|  -11.350987|  -13.633699|    0.622131|    0.007428|
|         951|  -11.351490|  -13.637187|    0.622131|    0.007428|
|         952|  -11.352097|  -13.640751|    0.622131|    0.007428|
|         953|  -11.352561|  -13.644391|    0.622131|    0.007428|
|         954|  -11.353099|  -13.648105|    0.622131|    0.007428|
|         955|  -11.353750|  -13.651891|    0.622131|    0.007428|
|         956|  -11.354166|  -13.655750|    0.622131|    0.007428|
|         957|  -11.355070|  -13.659678|    0.622131|    0.007428|
|         958|  -11.355564|  -13.663676|    0.622131|    0.007428|
|         959|  -11.356356|  -13.667740|    0.622131|    0.007428|
|         960|  -11.357042|  -13.671870|    0.622131|    0.007428|
|         961|  -11.358043|  -13.676061|    0.622131|    0.007428|
|         962|  -11.359091|  -13.680314|    0.622131|    0.007428|
|         963|  -11.359902|  -13.684623|    0.622131|    0.007428|
|         964|  -11.361035|  -13.688990|    0.622131|    0.007428|
|         965|  -11.362198|  -13.693408|    0.622131|    0.007428|
|         966|  -11.363459|  -13.697872|    0.622131|    0.007428|
|         967|  -11.364748|  -13.702382|    0.622131|    0.007428|
|         968|  -11.366153|  -13.706934|    0.622131|    0.007428|
|         969|  -11.367500|  -13.711521|    0.622131|    0.007428|
|         970|  -11.369021|  -13.716139|    0.622131|    0.007428|
|         971|  -11.370632|  -13.720786|    0.622131|    0.007428|
|         972|  -11.372306|  -13.725457|    0.622131|    0.007428|
|         973|  -11.374028|  -13.730143|    0.622131|    0.007428|
|         974|  -11.375918|  -13.734841|    0.622131|    0.007428|
|         975|  -11.377735|  -13.739542|    0.622131|    0.007428|
|         976|  -11.379768|  -13.744245|    0.622131|    0.007428|
|         977|  -11.381654|  -13.748940|    0.622131|    0.007428|
|         978|  -11.383765|  -13.753620|    0.622131|    0.007428|
|         979|  -11.385961|  -13.758278|    0.622131|    0.007428|
|         980|  -11.388128|  -13.762905|    0.622131|    0.007428|
|         981|  -11.390312|  -13.767498|    0.622131|    0.007428|
|         982|  -11.392456|  -13.772044|    0.622131|    0.007428|
|         983|  -11.394727|  -13.776539|    0.622131|    0.007428|
|         984|  -11.397120|  -13.780973|    0.622131|    0.007428|
|         985|  -11.399305|  -13.785338|    0.622131|    0.007428|
|         986|  -11.401803|  -13.789621|    0.622131|    0.007428|
|         987|  -11.404275|  -13.793820|    0.622131|    0.007428|
|         988|  -11.406553|  -13.797924|    0.622131|    0.007428|
|         989|  -11.408867|  -13.801921|    0.622131|    0.007428|
|         990|  -11.411329|  -13.805807|    0.622131|    0.007428|
|         991|  -11.413814|  -13.809571|    0.622131|    0.007428|
|         992|  -11.416209|  -13.813203|    0.622131|    0.007428|
|         993|  -11.418724|  -13.816701|    0.622131|    0.007428|
|         994|  -11.421299|  -13.820049|    0.622131|    0.007428|
|         995|  -11.423620|  -13.823245|    0.622131|    0.007428|
|         996|  -11.426282|  -13.826287|    0.622131|    0.007428|
|         997|  -11.428802|  -13.829161|    0.622131|    0.007428|
|         998|  -11.431226|  -13.831863|    0.622131|    0.007428|
|         999|  -11.433615|  -13.834388|    0.622131|    0.007428|
|        1000|  -11.436153|  -13.836732|    0.622131|    0.007428|
|        1001|  -11.438490|  -13.838895|    0.622131|    0.007428|
|        1002|  -11.441097|  -13.840871|    0.622131|    0.007428|
[...]
|        1878|   -5.905326|   -8.565125|    0.622316|    0.007428|
|        1879|   -5.902432|   -8.576999|    0.622317|    0.007428|
|        1880|   -5.899885|   -8.587961|    0.622317|    0.007428|
|        1881|   -5.897711|   -8.597734|    0.622317|    0.007428|
|        1882|   -5.895929|   -8.606092|    0.622317|    0.007428|
|        1883|   -5.894554|   -8.612890|    0.622317|    0.007428|
|        1884|   -5.893601|   -8.618076|    0.622317|    0.007428|
|        1885|   -5.893079|   -8.621694|    0.622317|    0.007428|
|        1886|   -5.892993|   -8.623886|    0.622317|    0.007428|
|        1887|   -5.893350|   -8.624869|    0.622317|    0.007428|
|        1888|   -5.894151|   -8.624913|    0.622317|    0.007428|
|        1889|   -5.895395|   -8.624321|    0.622316|    0.007428|
|        1890|   -5.897081|   -8.623399|    0.622316|    0.007428|
|        1891|   -5.899205|   -8.622442|    0.622316|    0.007428|
|        1892|   -5.901761|   -8.621718|    0.622316|    0.007428|
|        1893|   -5.904741|   -8.621464|    0.622316|    0.007428|
|        1894|   -5.908137|   -8.621878|    0.622316|    0.007428|
|        1895|   -5.911937|   -8.623116|    0.622315|    0.007428|
|        1896|   -5.916126|   -8.625303|    0.622315|    0.007428|
|        1897|   -5.920691|   -8.628525|    0.622315|    0.007428|
|        1898|   -5.925611|   -8.632837|    0.622315|    0.007428|
|        1899|   -5.930866|   -8.638255|    0.622314|    0.007428|
|        1900|   -5.936432|   -8.644766|    0.622314|    0.007428|
|        1901|   -5.942281|   -8.652324|    0.622314|    0.007428|
|        1902|   -5.948382|   -8.660844|    0.622314|    0.007428|
|        1903|   -5.954702|   -8.670206|    0.622313|    0.007428|
|        1904|   -5.961203|   -8.680244|    0.622313|    0.007428|
|        1905|   -5.967843|   -8.690751|    0.622313|    0.007428|
|        1906|   -5.974578|   -8.701472|    0.622313|    0.007428|
|        1907|   -5.981360|   -8.712111|    0.622312|    0.007428|
|        1908|   -5.988140|   -8.722335|    0.622312|    0.007428|
|        1909|   -5.994869|   -8.731788|    0.622312|    0.007428|
|        1910|   -6.001495|   -8.740114|    0.622311|    0.007428|
|        1911|   -6.007971|   -8.746979|    0.622311|    0.007428|
|        1912|   -6.014249|   -8.752112|    0.622311|    0.007428|
|        1913|   -6.020288|   -8.755323|    0.622311|    0.007428|
|        1914|   -6.026053|   -8.756534|    0.622311|    0.007428|
|        1915|   -6.031517|   -8.755786|    0.622310|    0.007428|
|        1916|   -6.036662|   -8.753229|    0.622310|    0.007428|
|        1917|   -6.041480|   -8.749105|    0.622310|    0.007428|
|        1918|   -6.045973|   -8.743719|    0.622310|    0.007428|
|        1919|   -6.050156|   -8.737406|    0.622310|    0.007428|
|        1920|   -6.054051|   -8.730499|    0.622310|    0.007428|
|        1921|   -6.057693|   -8.723314|    0.622310|    0.007428|
|        1922|   -6.061122|   -8.716133|    0.622310|    0.007428|
|        1923|   -6.064387|   -8.709192|    0.622310|    0.007429|
|        1924|   -6.067539|   -8.702684|    0.622310|    0.007429|
|        1925|   -6.070633|   -8.696760|    0.622310|    0.007429|
|        1926|   -6.073723|   -8.691526|    0.622310|    0.007429|
|        1927|   -6.076861|   -8.687057|    0.622310|    0.007429|
|        1928|   -6.080096|   -8.683390|    0.622310|    0.007429|
|        1929|   -6.083470|   -8.680539|    0.622310|    0.007429|
|        1930|   -6.087020|   -8.678491|    0.622310|    0.007429|
|        1931|   -6.090772|   -8.677210|    0.622310|    0.007429|
|        1932|   -6.094745|   -8.676645|    0.622310|    0.007429|
|        1933|   -6.098945|   -8.676727|    0.622310|    0.007429|
|        1934|   -6.103370|   -8.677372|    0.622310|    0.007429|
|        1935|   -6.108003|   -8.678489|    0.622311|    0.007429|
|        1936|   -6.112819|   -8.679973|    0.622311|    0.007429|
|        1937|   -6.117777|   -8.681720|    0.622311|    0.007429|
|        1938|   -6.122830|   -8.683622|    0.622311|    0.007429|
|        1939|   -6.127915|   -8.685574|    0.622311|    0.007429|
|        1940|   -6.132964|   -8.687477|    0.622311|    0.007429|
|        1941|   -6.137900|   -8.689245|    0.622311|    0.007430|
|        1942|   -6.142640|   -8.690806|    0.622311|    0.007430|
|        1943|   -6.147101|   -8.692106|    0.622311|    0.007430|
|        1944|   -6.151201|   -8.693114|    0.622312|    0.007430|
|        1945|   -6.154862|   -8.693818|    0.622312|    0.007430|
|        1946|   -6.158016|   -8.694232|    0.622312|    0.007430|
|        1947|   -6.160609|   -8.694388|    0.622312|    0.007430|
|        1948|   -6.162600|   -8.694336|    0.622312|    0.007430|
|        1949|   -6.163970|   -8.694143|    0.622312|    0.007430|
|        1950|   -6.164715|   -8.693884|    0.622312|    0.007430|
|        1951|   -6.164856|   -8.693640|    0.622312|    0.007430|
|        1952|   -6.164427|   -8.693496|    0.622312|    0.007430|
|        1953|   -6.163482|   -8.693536|    0.622312|    0.007430|
|        1954|   -6.162086|   -8.693839|    0.622312|    0.007430|
|        1955|   -6.160316|   -8.694478|    0.622312|    0.007430|
|        1956|   -6.158252|   -8.695516|    0.622312|    0.007430|
|        1957|   -6.155980|   -8.697008|    0.622312|    0.007430|
|        1958|   -6.153582|   -8.698999|    0.622312|    0.007430|
|        1959|   -6.151138|   -8.701520|    0.622312|    0.007430|
|        1960|   -6.148724|   -8.704594|    0.622312|    0.007430|
|        1961|   -6.146405|   -8.708231|    0.622312|    0.007430|
|        1962|   -6.144243|   -8.712430|    0.622312|    0.007430|
|        1963|   -6.142288|   -8.717179|    0.622312|    0.007430|
|        1964|   -6.140582|   -8.722456|    0.622312|    0.007430|
|        1965|   -6.139160|   -8.728229|    0.622312|    0.007430|
|        1966|   -6.138046|   -8.734456|    0.622312|    0.007430|
|        1967|   -6.137260|   -8.741087|    0.622313|    0.007430|
|        1968|   -6.136812|   -8.748065|    0.622313|    0.007430|
|        1969|   -6.136709|   -8.755326|    0.622313|    0.007430|
|        1970|   -6.136949|   -8.762802|    0.622313|    0.007430|
|        1971|   -6.137530|   -8.770422|    0.622313|    0.007429|
|        1972|   -6.138441|   -8.778114|    0.622313|    0.007429|
|        1973|   -6.139673|   -8.785809|    0.622313|    0.007429|
|        1974|   -6.141211|   -8.793439|    0.622313|    0.007429|
|        1975|   -6.143040|   -8.800947|    0.622313|    0.007429|
|        1976|   -6.145143|   -8.808281|    0.622313|    0.007429|
|        1977|   -6.147505|   -8.815399|    0.622313|    0.007430|
|        1978|   -6.150108|   -8.822272|    0.622314|    0.007430|
|        1979|   -6.152935|   -8.828883|    0.622314|    0.007430|
|        1980|   -6.155972|   -8.835228|    0.622314|    0.007430|
|        1981|   -6.159202|   -8.841312|    0.622314|    0.007430|
|        1982|   -6.162612|   -8.847150|    0.622314|    0.007430|
|        1983|   -6.166188|   -8.852763|    0.622315|    0.007430|
|        1984|   -6.169920|   -8.858176|    0.622315|    0.007430|
|        1985|   -6.173795|   -8.863415|    0.622315|    0.007430|
|        1986|   -6.177802|   -8.868503|    0.622315|    0.007430|
|        1987|   -6.181930|   -8.873458|    0.622316|    0.007430|
|        1988|   -6.186168|   -8.878287|    0.622316|    0.007430|
|        1989|   -6.190505|   -8.882988|    0.622316|    0.007430|
|        1990|   -6.194927|   -8.887545|    0.622316|    0.007430|
|        1991|   -6.199419|   -8.891926|    0.622317|    0.007430|
|        1992|   -6.203967|   -8.896085|    0.622317|    0.007430|
|        1993|   -6.208551|   -8.899960|    0.622317|    0.007430|
|        1994|   -6.213152|   -8.903477|    0.622318|    0.007430|
|        1995|   -6.217745|   -8.906551|    0.622318|    0.007430|
|        1996|   -6.222308|   -8.909086|    0.622318|    0.007430|
|        1997|   -6.226811|   -8.910987|    0.622319|    0.007430|
|        1998|   -6.231228|   -8.912163|    0.622319|    0.007430|
|        1999|   -6.235528|   -8.912530|    0.622319|    0.007430|
|        2000|   -6.239681|   -8.912020|    0.622320|    0.007430|
|        2001|   -6.243658|   -8.910588|    0.622320|    0.007430|
|        2002|   -6.247429|   -8.908213|    0.622320|    0.007430|
|        2003|   -6.250969|   -8.904905|    0.622321|    0.007430|
|        2004|   -6.254254|   -8.900703|    0.622321|    0.007430|
|        2005|   -6.257265|   -8.895674|    0.622321|    0.007430|
|        2006|   -6.259987|   -8.889909|    0.622321|    0.007430|
|        2007|   -6.262411|   -8.883518|    0.622322|    0.007430|
|        2008|   -6.264534|   -8.876625|    0.622322|    0.007430|
|        2009|   -6.266360|   -8.869361|    0.622322|    0.007430|
|        2010|   -6.267896|   -8.861859|    0.622323|    0.007430|
|        2011|   -6.269159|   -8.854249|    0.622323|    0.007430|
|        2012|   -6.270169|   -8.846656|    0.622323|    0.007430|
|        2013|   -6.270949|   -8.839192|    0.622323|    0.007430|
|        2014|   -6.271529|   -8.831963|    0.622323|    0.007430|
|        2015|   -6.271939|   -8.825058|    0.622324|    0.007430|
|        2016|   -6.272214|   -8.818559|    0.622324|    0.007430|
|        2017|   -6.272386|   -8.812532|    0.622324|    0.007430|
|        2018|   -6.272489|   -8.807032|    0.622324|    0.007430|
|        2019|   -6.272557|   -8.802106|    0.622324|    0.007430|
|        2020|   -6.272621|   -8.797787|    0.622325|    0.007429|
|        2021|   -6.272710|   -8.794103|    0.622325|    0.007429|
|        2022|   -6.272850|   -8.791071|    0.622325|    0.007429|
|        2023|   -6.273065|   -8.788702|    0.622325|    0.007429|
|        2024|   -6.273376|   -8.787000|    0.622325|    0.007429|
|        2025|   -6.273799|   -8.785962|    0.622325|    0.007429|
|        2026|   -6.274347|   -8.785579|    0.622325|    0.007429|
|        2027|   -6.275032|   -8.785839|    0.622325|    0.007429|
|        2028|   -6.275860|   -8.786721|    0.622325|    0.007429|
|        2029|   -6.276836|   -8.788203|    0.622325|    0.007429|
|        2030|   -6.277960|   -8.790255|    0.622325|    0.007429|
|        2031|   -6.279233|   -8.792846|    0.622325|    0.007429|
|        2032|   -6.280651|   -8.795939|    0.622325|    0.007429|
|        2033|   -6.282209|   -8.799495|    0.622325|    0.007429|
|        2034|   -6.283902|   -8.803470|    0.622325|    0.007429|
|        2035|   -6.285721|   -8.807819|    0.622325|    0.007429|
|        2036|   -6.287659|   -8.812493|    0.622325|    0.007429|
|        2037|   -6.289708|   -8.817442|    0.622325|    0.007429|
|        2038|   -6.291859|   -8.822615|    0.622325|    0.007429|
|        2039|   -6.294103|   -8.827962|    0.622325|    0.007429|
|        2040|   -6.296433|   -8.833431|    0.622325|    0.007429|
|        2041|   -6.298841|   -8.838974|    0.622325|    0.007429|
|        2042|   -6.301323|   -8.844546|    0.622325|    0.007429|
|        2043|   -6.303872|   -8.850103|    0.622325|    0.007429|
|        2044|   -6.306485|   -8.855607|    0.622325|    0.007429|
|        2045|   -6.309159|   -8.861024|    0.622324|    0.007429|
|        2046|   -6.311893|   -8.866326|    0.622324|    0.007429|
|        2047|   -6.314687|   -8.871489|    0.622324|    0.007429|
|        2048|   -6.317540|   -8.876497|    0.622324|    0.007429|
|        2049|   -6.320456|   -8.881338|    0.622324|    0.007429|
|        2050|   -6.323435|   -8.886003|    0.622324|    0.007429|
|        2051|   -6.326480|   -8.890488|    0.622324|    0.007429|
|        2052|   -6.329595|   -8.894793|    0.622324|    0.007429|
|        2053|   -6.332781|   -8.898918|    0.622324|    0.007429|
|        2054|   -6.336041|   -8.902866|    0.622324|    0.007429|
|        2055|   -6.339376|   -8.906637|    0.622324|    0.007429|
|        2056|   -6.342786|   -8.910232|    0.622324|    0.007429|
|        2057|   -6.346270|   -8.913649|    0.622324|    0.007429|
|        2058|   -6.349824|   -8.916883|    0.622324|    0.007429|
|        2059|   -6.353444|   -8.919925|    0.622324|    0.007429|
|        2060|   -6.357122|   -8.922761|    0.622324|    0.007429|
|        2061|   -6.360850|   -8.925375|    0.622324|    0.007429|
|        2062|   -6.364615|   -8.927743|    0.622324|    0.007429|
|        2063|   -6.368403|   -8.929844|    0.622324|    0.007429|
|        2064|   -6.372197|   -8.931652|    0.622324|    0.007429|
|        2065|   -6.375980|   -8.933142|    0.622324|    0.007429|
|        2066|   -6.379729|   -8.934288|    0.622324|    0.007429|
|        2067|   -6.383424|   -8.935067|    0.622324|    0.007429|
|        2068|   -6.387038|   -8.935460|    0.622324|    0.007429|
|        2069|   -6.390549|   -8.935450|    0.622324|    0.007429|
|        2070|   -6.393931|   -8.935028|    0.622324|    0.007429|
|        2071|   -6.397160|   -8.934190|    0.622324|    0.007429|
|        2072|   -6.400211|   -8.932938|    0.622324|    0.007429|
|        2073|   -6.403062|   -8.931281|    0.622324|    0.007429|
|        2074|   -6.405695|   -8.929236|    0.622324|    0.007429|
|        2075|   -6.408092|   -8.926825|    0.622324|    0.007429|
|        2076|   -6.410239|   -8.924076|    0.622324|    0.007429|
|        2077|   -6.412128|   -8.921023|    0.622324|    0.007429|
|        2078|   -6.413755|   -8.917701|    0.622324|    0.007429|
|        2079|   -6.415117|   -8.914150|    0.622324|    0.007429|
|        2080|   -6.416220|   -8.910411|    0.622324|    0.007428|
|        2081|   -6.417074|   -8.906523|    0.622324|    0.007428|
|        2082|   -6.417690|   -8.902528|    0.622324|    0.007428|
|        2083|   -6.418086|   -8.898464|    0.622324|    0.007428|
|        2084|   -6.418284|   -8.894367|    0.622324|    0.007428|
|        2085|   -6.418307|   -8.890271|    0.622324|    0.007428|
|        2086|   -6.418181|   -8.886207|    0.622324|    0.007428|
|        2087|   -6.417934|   -8.882202|    0.622324|    0.007428|
|        2088|   -6.417596|   -8.878282|    0.622324|    0.007417|
+-----------------------------------------------------------------------+
|Fixed CL Mode (Finite Difference)       |Value                         |
+-----------------------------------------------------------------------+
|Delta CL / Delta AoA                    |0.193444                      |
|Delta CD / Delta CL                     |0.00195404                    |
|Delta CMz / Delta CL                    |-0.0182646                    |
+-----------------------------------------------------------------------+
Writing Flow Meta-Data file: flow.meta

--------------------------- Finalizing Solver ---------------------------
Deleted CNumerics container.
Deleted CIntegration container.
Deleted CSolver container.
Deleted CIteration container.
Deleted CInterface container.
Deleted CGeometry container.
Deleted CFreeFormDefBox class.
Deleted CSurfaceMovement class.
Deleted CVolumetricMovement class.
Deleted CConfig container.
Deleted nInst container.
Deleted COutput class.
-------------------------------------------------------------------------

------------------------- Exit Success (SU2_CFD) ------------------------


-------------------------------------------------------------------------
|    ___ _   _ ___                                                      |
|   / __| | | |_  )   Release 8.0.0 "Harrier"                           |
|   \__ \ |_| |/ /                                                      |
|   |___/\___//___|   Suite (Solution Exporting Code)                   |
|                                                                       |
-------------------------------------------------------------------------
| SU2 Project Website: https://su2code.github.io                        |
|                                                                       |
| The SU2 Project is maintained by the SU2 Foundation                   |
| (http://su2foundation.org)                                            |
-------------------------------------------------------------------------
| Copyright 2012-2023, SU2 Contributors                                 |
|                                                                       |
| SU2 is free software; you can redistribute it and/or                  |
| modify it under the terms of the GNU Lesser General Public            |
| License as published by the Free Software Foundation; either          |
| version 2.1 of the License, or (at your option) any later version.    |
|                                                                       |
| SU2 is distributed in the hope that it will be useful,                |
| but WITHOUT ANY WARRANTY; without even the implied warranty of        |
| MERCHANTABILITY or FITNESS FOR A PARTICULAR PURPOSE. See the GNU      |
| Lesser General Public License for more details.                       |
|                                                                       |
| You should have received a copy of the GNU Lesser General Public      |
| License along with SU2. If not, see <http://www.gnu.org/licenses/>.   |
-------------------------------------------------------------------------

----------------- Physical Case Definition ( Zone 0 ) -------------------
Input mesh file name: trax_125_deform.su2

-------------------- Output Information ( Zone 0 ) ----------------------
The tabular file format is CSV (.csv).
Flow variables file name: flow.

------------- Config File Boundary Information ( Zone 0 ) ---------------
+-----------------------------------------------------------------------+
|                        Marker Type|                        Marker Name|
+-----------------------------------------------------------------------+
|                          Far-field|                           FARFIELD|
+-----------------------------------------------------------------------+
|                     Heat flux wall|                            AIRFOIL|
+-----------------------------------------------------------------------+
Two dimensional problem.
13937 grid points before partitioning.
22842 volume elements before partitioning.
2 surface markers.
192 boundary elements in index 0 (Marker = AIRFOIL).
40 boundary elements in index 1 (Marker = FARFIELD).
Executing the partitioning functions.
Building the graph adjacency structure.
Calling ParMETIS... graph partitioning complete (1496 edge cuts).
Distributing ParMETIS coloring.
Rebalancing vertices.
Rebalancing volume element connectivity.
Rebalancing markers and surface elements.
15800 vertices including ghost points. 
24347 interior elements including halo cells. 
19221 triangles.
5126 quadrilaterals.
Establishing MPI communication patterns.
Identify vertices.
Storing a mapping from global to local point index.

------------------------- Solution Postprocessing -----------------------
Reading and storing the solution from restart_flow.
Volume output fields: COORDINATES, SOLUTION
  Info: Ignoring the following screen output fields:
  RMS_DENSITY, RMS_NU_TILDE, LIFT, DRAG
Screen output fields: INNER_ITER
  Info: Ignoring the following history output groups:
  RMS_RES, AERO_COEFF
History output group(s): ITER
Warning: No (valid) fields chosen for convergence monitoring. Convergence monitoring inactive.
Warning: No (valid) fields chosen for time convergence monitoring. Time convergence monitoring inactive.
|Paraview                           |flow.vtu                           |
|Paraview surface                   |surface_flow.vtu                   |
|CSV file                           |surface_flow.csv                   |

------------------------- Finalize Solver -------------------------
Deleted CGeometry container.
Deleted CSolver class.
Deleted CConfig container.
Deleted COutput class.

Completed in 0.015200 seconds on 16 cores.

------------------------- Exit Success (SU2_SOL) ------------------------

