
-------------------------------------------------------------------------
|    ___ _   _ ___                                                      |
|   / __| | | |_  )   Release 8.0.0 "Harrier"                           |
|   \__ \ |_| |/ /                                                      |
|   |___/\___//___|   Suite (Computational Fluid Dynamics Code)         |
|                                                                       |
-------------------------------------------------------------------------
| SU2 Project Website: https://su2code.github.io                        |
|                                                                       |
| The SU2 Project is maintained by the SU2 Foundation                   |
| (http://su2foundation.org)                                            |
-------------------------------------------------------------------------
| Copyright 2012-2023, SU2 Contributors                                 |
|                                                                       |
| SU2 is free software; you can redistribute it and/or                  |
| modify it under the terms of the GNU Lesser General Public            |
| License as published by the Free Software Foundation; either          |
| version 2.1 of the License, or (at your option) any later version.    |
|                                                                       |
| SU2 is distributed in the hope that it will be useful,                |
| but WITHOUT ANY WARRANTY; without even the implied warranty of        |
| MERCHANTABILITY or FITNESS FOR A PARTICULAR PURPOSE. See the GNU      |
| Lesser General Public License for more details.                       |
|                                                                       |
| You should have received a copy of the GNU Lesser General Public      |
| License along with SU2. If not, see <http://www.gnu.org/licenses/>.   |
-------------------------------------------------------------------------

Parsing config file for zone 0

----------------- Physical Case Definition ( Zone 0 ) -------------------
Compressible RANS equations.
Turbulence model: Spalart-Allmaras-noft2
Hybrid RANS/LES: No Hybrid RANS/LES
Mach number: 0.762.
Angle of attack (AoA): 0 deg, and angle of sideslip (AoS): 0 deg.
Reynolds number: 6.79424e+06. Reference length 1.
Fixed CL mode, target value: 0.622131.
Reading and writing binary SU2 native restart files.
Read flow solution from: solution_flow.dat.
Dimensional simulation.
The reference area is 1 m^2.
The semi-span will be computed using the max y(3D) value.
The reference length is 1 m.
Reference origin for moment evaluation is (0.25, 0, 0).
Surface(s) where the force coefficients are evaluated: AIRFOIL.

Surface(s) plotted in the output file: AIRFOIL.
Surface(s) affected by the design variables: AIRFOIL.
Input mesh file name: trax_125_deform.su2

--------------- Space Numerical Integration ( Zone 0 ) ------------------
Jameson-Schmidt-Turkel scheme (2nd order in space) for the flow inviscid terms.
JST viscous coefficients (2nd & 4th): 0.5, 0.02.
The method includes a grid stretching correction (p = 0.3).
Scalar upwind solver for the turbulence model.
First order integration in space.
Average of gradients with correction (viscous flow terms).
Average of gradients with correction (viscous turbulence terms).
Gradient for viscous and source terms: inverse-distance weighted Least-Squares.

--------------- Time Numerical Integration  ( Zone 0 ) ------------------
Local time stepping (steady state simulation).
Euler implicit method for the flow equations.
FGMRES is used for solving the linear system.
Using a ILU(0) preconditioning.
Convergence criteria of the linear solver: 1e-06.
Max number of linear iterations: 10.
No CFL adaptation.
Courant-Friedrichs-Lewy number:       10
Euler implicit time integration for the turbulence model.

------------------ Convergence Criteria  ( Zone 0 ) ---------------------
Maximum number of solver subiterations: 10499.
Begin convergence monitoring at iteration 10.
Residual minimum value: 1e-12.
Cauchy series min. value: 1e-06.
Number of Cauchy elements: 100.
Begin windowed time average at iteration 0.

-------------------- Output Information ( Zone 0 ) ----------------------
File writing frequency: 
+------------------------------------+
|                     File| Frequency|
+------------------------------------+
|                  RESTART|     10000|
|                 PARAVIEW|     10000|
|         SURFACE_PARAVIEW|     10000|
|              SURFACE_CSV|     10000|
+------------------------------------+
Writing the convergence history file every 1 inner iterations.
Writing the screen convergence history every 1 inner iterations.
The tabular file format is CSV (.csv).
Convergence history file name: history_direct.
Forces breakdown file name: forces_breakdown.dat.
Surface file name: surface_flow.
Volume file name: flow.
Restart file name: restart_flow.dat.

------------- Config File Boundary Information ( Zone 0 ) ---------------
+-----------------------------------------------------------------------+
|                        Marker Type|                        Marker Name|
+-----------------------------------------------------------------------+
|                          Far-field|                           FARFIELD|
+-----------------------------------------------------------------------+
|                     Heat flux wall|                            AIRFOIL|
+-----------------------------------------------------------------------+

-------------------- Output Preprocessing ( Zone 0 ) --------------------

WARNING: SURFACE_PRESSURE_DROP can only be computed for at least 2 surfaces (outlet, inlet, ...)

Screen output fields: INNER_ITER, RMS_DENSITY, RMS_NU_TILDE, LIFT, DRAG
History output group(s): ITER, RMS_RES, AERO_COEFF
Convergence field(s): RMS_DENSITY
Warning: No (valid) fields chosen for time convergence monitoring. Time convergence monitoring inactive.
Volume output fields: COORDINATES, SOLUTION, PRIMITIVE

------------------- Geometry Preprocessing ( Zone 0 ) -------------------
Two dimensional problem.
13937 grid points before partitioning.
22842 volume elements before partitioning.
2 surface markers.
192 boundary elements in index 0 (Marker = AIRFOIL).
40 boundary elements in index 1 (Marker = FARFIELD).
Executing the partitioning functions.
Building the graph adjacency structure.
Calling ParMETIS... graph partitioning complete (1496 edge cuts).
Distributing ParMETIS coloring.
Rebalancing vertices.
Rebalancing volume element connectivity.
Rebalancing markers and surface elements.
15800 vertices including ghost points. 
24347 interior elements including halo cells. 
19221 triangles.
5126 quadrilaterals.
Establishing MPI communication patterns.
Setting point connectivity.
Renumbering points (Reverse Cuthill McKee Ordering).
Recomputing point connectivity.
Setting element connectivity.
Checking the numerical grid orientation.
All volume elements are correctly orientend.
All surface elements are correctly orientend.
Identifying edges and vertices.
Setting the control volume structure.
Area of the computational grid: 32851.1.
Searching for the closest normal neighbors to the surfaces.
Storing a mapping from global to local point index.
Compute the surface curvature.
Max K: 155.182. Mean K: 7.10783. Standard deviation K: 20.697.
Checking for periodicity.
Computing mesh quality statistics for the dual control volumes.
+--------------------------------------------------------------+
|           Mesh Quality Metric|        Minimum|        Maximum|
+--------------------------------------------------------------+
|    Orthogonality Angle (deg.)|        75.0578|        89.9992|
|     CV Face Area Aspect Ratio|        1.00149|        3358.41|
|           CV Sub-Volume Ratio|        1.00044|        1207.88|
+--------------------------------------------------------------+
Finding max control volume width.
Communicating number of neighbors.
Wetted area = 2.02471 m.
Area projection in the x-plane = 0.124757 m, y-plane = 0.995873 m.
Max. coordinate in the x-direction = 1 m, y-direction = 0.0592761 m.
Min. coordinate in the x-direction = 0 m, y-direction = -0.0652031 m.
Computing wall distances.

-------------------- Solver Preprocessing ( Zone 0 ) --------------------
WARNING: AoA in the solution file (1.94475 deg.) +
         AoA offset in mesh file (0 deg.) = 1.94475 deg.
WARNING: SU2 will use the dCD/dCL provided in the direct solution file: -0.00914335.
WARNING: SU2 will use the dCMz/dCL provided in the direct solution file: 0.0307352.
Viscous flow: Computing pressure using the ideal gas law
based on the free-stream temperature and a density computed
from the Reynolds number.
Force coefficients computed using free-stream values.

-- Models:
+------------------------------------------------------------------------------+
|          Viscosity Model|        Conductivity Model|              Fluid Model|
+------------------------------------------------------------------------------+
|               SUTHERLAND|          CONSTANT_PRANDTL|             STANDARD_AIR|
+------------------------------------------------------------------------------+
-- Fluid properties:
+------------------------------------------------------------------------------+
|                  Name|    Dim. value|    Ref. value|      Unit|Non-dim. value|
+------------------------------------------------------------------------------+
|        Ref. Viscosity|     1.716e-05|             1|   N.s/m^2|     1.716e-05|
|      Sutherland Temp.|        273.15|             1|         K|        273.15|
|     Sutherland Const.|         110.4|             1|         K|         110.4|
+------------------------------------------------------------------------------+
|        Prandtl (Lam.)|             -|             -|         -|          0.72|
|       Prandtl (Turb.)|             -|             -|         -|           0.9|
+------------------------------------------------------------------------------+
|          Gas Constant|       287.058|             1|  N.m/kg.K|       287.058|
|      Spec. Heat Ratio|             -|             -|         -|           1.4|
+------------------------------------------------------------------------------+
-- Initial and free-stream conditions:
+------------------------------------------------------------------------------+
|                  Name|    Dim. value|    Ref. value|      Unit|Non-dim. value|
+------------------------------------------------------------------------------+
|       Static Pressure|       38779.2|             1|        Pa|       38779.2|
|               Density|      0.468824|             1|    kg/m^3|      0.468824|
|           Temperature|        288.15|             1|         K|        288.15|
|          Total Energy|        240409|             1|   m^2/s^2|        240409|
|            Velocity-X|       259.157|             1|       m/s|       259.157|
|            Velocity-Y|       8.79976|             1|       m/s|       8.79976|
|    Velocity Magnitude|       259.306|             1|       m/s|       259.306|
+------------------------------------------------------------------------------+
|             Viscosity|    1.7893e-05|             1|   N.s/m^2|    1.7893e-05|
|          Conductivity|             -|             1|   W/m^2.K|             -|
|     Turb. Kin. Energy|       252.149|             1|   m^2/s^2|       252.149|
|     Spec. Dissipation|        660671|             1|       1/s|        660671|
+------------------------------------------------------------------------------+
|           Mach Number|             -|             -|         -|         0.762|
|       Reynolds Number|             -|             -|         -|   6.79424e+06|
+------------------------------------------------------------------------------+
Initialize Jacobian structure (Navier-Stokes). MG level: 0.
Initialize Jacobian structure (SA model).

------------------- Numerics Preprocessing ( Zone 0 ) -------------------

----------------- Integration Preprocessing ( Zone 0 ) ------------------

------------------- Iteration Preprocessing ( Zone 0 ) ------------------
Euler/Navier-Stokes/RANS fluid iteration.

------------------------------ Begin Solver -----------------------------

Simulation Run using the Single-zone Driver
WARNING: SU2 was not compiled for an AVX-capable architecture. Performance could be better,
         see https://su2code.github.io/docs_v7/Build-SU2-Linux-MacOS/#compiler-optimizations
+----------------------------------------------------------------+
|  Inner_Iter|    rms[Rho]|     rms[nu]|          CL|          CD|
+----------------------------------------------------------------+
|           0|   -4.086157|   -5.348066|    0.622197|    0.010971|
|           1|   -4.134920|   -5.440059|    0.622257|    0.010810|
|           2|   -4.184984|   -5.551636|    0.622314|    0.010729|
|           3|   -4.217838|   -5.678478|    0.622358|    0.010697|
|           4|   -4.234283|   -5.812290|    0.622383|    0.010689|
|           5|   -4.240132|   -5.931723|    0.622392|    0.010690|
|           6|   -4.240824|   -6.001304|    0.622389|    0.010691|
|           7|   -4.239790|   -6.010541|    0.622379|    0.010692|
|           8|   -4.238284|   -5.989505|    0.622366|    0.010691|
|           9|   -4.236015|   -5.965439|    0.622348|    0.010689|
|          10|   -4.232007|   -5.946199|    0.622325|    0.010685|
|          11|   -4.225354|   -5.929720|    0.622296|    0.010681|
|          12|   -4.215656|   -5.912043|    0.622258|    0.010675|
|          13|   -4.203104|   -5.891413|    0.622214|    0.010670|
|          14|   -4.188349|   -5.869034|    0.622165|    0.010665|
|          15|   -4.172309|   -5.847412|    0.622112|    0.010661|
|          16|   -4.156011|   -5.828435|    0.622058|    0.010658|
|          17|   -4.140455|   -5.812541|    0.622006|    0.010656|
|          18|   -4.126487|   -5.798908|    0.621959|    0.010656|
|          19|   -4.114695|   -5.785920|    0.621920|    0.010657|
|          20|   -4.105327|   -5.771976|    0.621891|    0.010660|
|          21|   -4.098274|   -5.756189|    0.621875|    0.010666|
|          22|   -4.093115|   -5.738747|    0.621874|    0.010674|
|          23|   -4.089236|   -5.720807|    0.621888|    0.010684|
|          24|   -4.085993|   -5.704004|    0.621917|    0.010697|
|          25|   -4.082876|   -5.689979|    0.621960|    0.010711|
|          26|   -4.079614|   -5.680010|    0.622014|    0.010728|
|          27|   -4.076183|   -5.675029|    0.622075|    0.010745|
|          28|   -4.072736|   -5.675546|    0.622142|    0.010763|
|          29|   -4.069492|   -5.681736|    0.622208|    0.010781|
|          30|   -4.066637|   -5.693471|    0.622272|    0.010799|
|          31|   -4.064267|   -5.710310|    0.622330|    0.010816|
|          32|   -4.062386|   -5.731435|    0.622379|    0.010831|
|          33|   -4.060923|   -5.755642|    0.622416|    0.010844|
|          34|   -4.059774|   -5.781302|    0.622442|    0.010856|
|          35|   -4.058830|   -5.806477|    0.622455|    0.010866|
|          36|   -4.058004|   -5.829172|    0.622457|    0.010875|
|          37|   -4.057251|   -5.847738|    0.622447|    0.010883|
|          38|   -4.056559|   -5.861249|    0.622428|    0.010889|
|          39|   -4.055948|   -5.869620|    0.622402|    0.010895|
|          40|   -4.055464|   -5.873382|    0.622370|    0.010902|
|          41|   -4.055172|   -5.873251|    0.622336|    0.010908|
|          42|   -4.055142|   -5.869801|    0.622301|    0.010915|
|          43|   -4.055434|   -5.863393|    0.622266|    0.010924|
|          44|   -4.056094|   -5.854258|    0.622235|    0.010933|
|          45|   -4.057139|   -5.842708|    0.622207|    0.010944|
|          46|   -4.058558|   -5.829285|    0.622183|    0.010957|
|          47|   -4.060311|   -5.814793|    0.622165|    0.010971|
|          48|   -4.062340|   -5.800196|    0.622152|    0.010986|
|          49|   -4.064566|   -5.786451|    0.622144|    0.011002|
|          50|   -4.066911|   -5.774379|    0.622139|    0.011020|
|          51|   -4.069304|   -5.764573|    0.622138|    0.011038|
|          52|   -4.071691|   -5.757377|    0.622140|    0.011056|
|          53|   -4.074041|   -5.752895|    0.622142|    0.011075|
|          54|   -4.076350|   -5.751012|    0.622144|    0.011094|
|          55|   -4.078629|   -5.751446|    0.622146|    0.011113|
|          56|   -4.080894|   -5.753780|    0.622146|    0.011131|
|          57|   -4.083171|   -5.757499|    0.622143|    0.011149|
|          58|   -4.085487|   -5.762080|    0.622137|    0.011166|
|          59|   -4.087852|   -5.767029|    0.622128|    0.011183|
|          60|   -4.090278|   -5.771942|    0.622115|    0.011199|
|          61|   -4.092768|   -5.776457|    0.622099|    0.011214|
|          62|   -4.095322|   -5.780384|    0.622079|    0.011229|
|          63|   -4.097934|   -5.783643|    0.622056|    0.011243|
|          64|   -4.100597|   -5.786238|    0.622030|    0.011257|
|          65|   -4.103303|   -5.788243|    0.622001|    0.011270|
|          66|   -4.106047|   -5.789751|    0.621971|    0.011282|
|          67|   -4.108815|   -5.790855|    0.621939|    0.011294|
|          68|   -4.111597|   -5.791637|    0.621906|    0.011305|
|          69|   -4.114386|   -5.792165|    0.621872|    0.011316|
|          70|   -4.117177|   -5.792496|    0.621838|    0.011326|
|          71|   -4.119952|   -5.792659|    0.621804|    0.011336|
|          72|   -4.122697|   -5.792665|    0.621771|    0.011345|
|          73|   -4.125398|   -5.792540|    0.621738|    0.011354|
|          74|   -4.128040|   -5.792307|    0.621705|    0.011362|
|          75|   -4.130607|   -5.791987|    0.621674|    0.011370|
|          76|   -4.133080|   -5.791600|    0.621643|    0.011376|
|          77|   -4.135447|   -5.791160|    0.621613|    0.011383|
|          78|   -4.137693|   -5.790679|    0.621583|    0.011389|
|          79|   -4.139810|   -5.790168|    0.621555|    0.011394|
|          80|   -4.141793|   -5.789639|    0.621527|    0.011398|
|          81|   -4.143645|   -5.789107|    0.621500|    0.011403|
|          82|   -4.145372|   -5.788589|    0.621473|    0.011406|
|          83|   -4.146988|   -5.788108|    0.621447|    0.011410|
|          84|   -4.148515|   -5.787697|    0.621423|    0.011413|
|          85|   -4.149979|   -5.787394|    0.621398|    0.011415|
|          86|   -4.151406|   -5.787218|    0.621375|    0.011418|
|          87|   -4.152827|   -5.787189|    0.621353|    0.011420|
|          88|   -4.154269|   -5.787343|    0.621331|    0.011422|
|          89|   -4.155754|   -5.787706|    0.621310|    0.011425|
|          90|   -4.157298|   -5.788297|    0.621290|    0.011427|
|          91|   -4.158910|   -5.789125|    0.621270|    0.011429|
|          92|   -4.160586|   -5.790194|    0.621251|    0.011431|
|          93|   -4.162316|   -5.791504|    0.621233|    0.011434|
|          94|   -4.164078|   -5.793045|    0.621215|    0.011436|
|          95|   -4.165843|   -5.794807|    0.621197|    0.011439|
|          96|   -4.167578|   -5.796772|    0.621179|    0.011441|
|          97|   -4.169244|   -5.798922|    0.621161|    0.011444|
|          98|   -4.170802|   -5.801239|    0.621143|    0.011446|
|          99|   -4.172214|   -5.803706|    0.621125|    0.011449|
|         100|   -4.173445|   -5.806293|    0.621106|    0.011452|
|         101|   -4.174465|   -5.808982|    0.621087|    0.011454|
|         102|   -4.175249|   -5.811753|    0.621066|    0.011456|
|         103|   -4.175782|   -5.814590|    0.621045|    0.011458|
|         104|   -4.176054|   -5.817475|    0.621023|    0.011460|
|         105|   -4.176063|   -5.820392|    0.620999|    0.011462|
|         106|   -4.175813|   -5.823326|    0.620975|    0.011463|
|         107|   -4.175315|   -5.826264|    0.620950|    0.011464|
|         108|   -4.174586|   -5.829190|    0.620923|    0.011465|
|         109|   -4.173645|   -5.832097|    0.620896|    0.011466|
|         110|   -4.172517|   -5.834976|    0.620867|    0.011466|
|         111|   -4.171226|   -5.837817|    0.620838|    0.011465|
|         112|   -4.169796|   -5.840616|    0.620808|    0.011464|
|         113|   -4.168252|   -5.843368|    0.620777|    0.011463|
|         114|   -4.166614|   -5.846074|    0.620746|    0.011462|
|         115|   -4.164903|   -5.848733|    0.620715|    0.011460|
|         116|   -4.163131|   -5.851345|    0.620683|    0.011458|
|         117|   -4.161307|   -5.853923|    0.620652|    0.011455|
|         118|   -4.159435|   -5.856477|    0.620620|    0.011452|
|         119|   -4.157514|   -5.859019|    0.620589|    0.011449|
|         120|   -4.155539|   -5.861563|    0.620559|    0.011446|
|         121|   -4.153499|   -5.864121|    0.620529|    0.011443|
|         122|   -4.151382|   -5.866706|    0.620499|    0.011439|
|         123|   -4.149174|   -5.869331|    0.620471|    0.011435|
|         124|   -4.146858|   -5.872006|    0.620443|    0.011432|
|         125|   -4.144420|   -5.874736|    0.620416|    0.011428|
|         126|   -4.141845|   -5.877536|    0.620390|    0.011424|
|         127|   -4.139121|   -5.880419|    0.620365|    0.011420|
|         128|   -4.136238|   -5.883393|    0.620341|    0.011416|
|         129|   -4.133191|   -5.886463|    0.620319|    0.011413|
|         130|   -4.129976|   -5.889637|    0.620297|    0.011409|
|         131|   -4.126594|   -5.892917|    0.620276|    0.011405|
|         132|   -4.123046|   -5.896307|    0.620256|    0.011402|
|         133|   -4.119339|   -5.899802|    0.620237|    0.011399|
|         134|   -4.115479|   -5.903403|    0.620219|    0.011396|
|         135|   -4.111477|   -5.907123|    0.620201|    0.011393|
|         136|   -4.107343|   -5.910962|    0.620184|    0.011390|
|         137|   -4.103090|   -5.914920|    0.620168|    0.011387|
|         138|   -4.098734|   -5.919001|    0.620152|    0.011384|
|         139|   -4.094289|   -5.923204|    0.620136|    0.011382|
|         140|   -4.089774|   -5.927527|    0.620121|    0.011380|
|         141|   -4.085204|   -5.931970|    0.620106|    0.011377|
|         142|   -4.080600|   -5.936533|    0.620091|    0.011375|
|         143|   -4.075981|   -5.941213|    0.620076|    0.011373|
|         144|   -4.071368|   -5.946009|    0.620062|    0.011371|
|         145|   -4.066780|   -5.950918|    0.620047|    0.011369|
|         146|   -4.062239|   -5.955936|    0.620033|    0.011367|
|         147|   -4.057764|   -5.961060|    0.620018|    0.011365|
|         148|   -4.053376|   -5.966283|    0.620004|    0.011364|
|         149|   -4.049092|   -5.971599|    0.619989|    0.011362|
|         150|   -4.044932|   -5.977002|    0.619975|    0.011360|
|         151|   -4.040909|   -5.982486|    0.619960|    0.011358|
|         152|   -4.037040|   -5.988041|    0.619946|    0.011357|
|         153|   -4.033336|   -5.993659|    0.619931|    0.011355|
|         154|   -4.029807|   -5.999330|    0.619916|    0.011353|
|         155|   -4.026464|   -6.005043|    0.619902|    0.011352|
|         156|   -4.023312|   -6.010789|    0.619888|    0.011350|
|         157|   -4.020356|   -6.016555|    0.619873|    0.011348|
|         158|   -4.017599|   -6.022327|    0.619859|    0.011347|
|         159|   -4.015043|   -6.028089|    0.619845|    0.011345|
|         160|   -4.012687|   -6.033825|    0.619832|    0.011343|
|         161|   -4.010528|   -6.039517|    0.619818|    0.011342|
|         162|   -4.008564|   -6.045145|    0.619805|    0.011340|
|         163|   -4.006789|   -6.050691|    0.619792|    0.011339|
|         164|   -4.005200|   -6.056131|    0.619780|    0.011337|
|         165|   -4.003789|   -6.061442|    0.619768|    0.011336|
|         166|   -4.002552|   -6.066604|    0.619756|    0.011335|
|         167|   -4.001480|   -6.071596|    0.619745|    0.011333|
|         168|   -4.000570|   -6.076397|    0.619734|    0.011332|
|         169|   -3.999814|   -6.080986|    0.619723|    0.011331|
|         170|   -3.999206|   -6.085345|    0.619713|    0.011330|
|         171|   -3.998744|   -6.089460|    0.619703|    0.011329|
|         172|   -3.998421|   -6.093312|    0.619694|    0.011329|
|         173|   -3.998235|   -6.096893|    0.619685|    0.011328|
|         174|   -3.998184|   -6.100194|    0.619676|    0.011327|
|         175|   -3.998265|   -6.103210|    0.619668|    0.011327|
|         176|   -3.998479|   -6.105938|    0.619660|    0.011327|
|         177|   -3.998827|   -6.108378|    0.619652|    0.011327|
|         178|   -3.999308|   -6.110539|    0.619645|    0.011327|
|         179|   -3.999925|   -6.112430|    0.619638|    0.011327|
|         180|   -4.000681|   -6.114062|    0.619631|    0.011328|
|         181|   -4.001580|   -6.115452|    0.619624|    0.011328|
|         182|   -4.002623|   -6.116615|    0.619617|    0.011329|
|         183|   -4.003815|   -6.117573|    0.619611|    0.011330|
|         184|   -4.005158|   -6.118346|    0.619605|    0.011331|
|         185|   -4.006656|   -6.118956|    0.619599|    0.011333|
|         186|   -4.008310|   -6.119429|    0.619593|    0.011334|
|         187|   -4.010122|   -6.119788|    0.619587|    0.011336|
|         188|   -4.012091|   -6.120055|    0.619581|    0.011337|
|         189|   -4.014217|   -6.120253|    0.619575|    0.011339|
|         190|   -4.016497|   -6.120404|    0.619569|    0.011341|
|         191|   -4.018926|   -6.120530|    0.619563|    0.011343|
|         192|   -4.021499|   -6.120649|    0.619557|    0.011345|
|         193|   -4.024207|   -6.120782|    0.619552|    0.011347|
|         194|   -4.027037|   -6.120942|    0.619546|    0.011350|
|         195|   -4.029977|   -6.121145|    0.619541|    0.011352|
|         196|   -4.033010|   -6.121406|    0.619535|    0.011354|
|         197|   -4.036116|   -6.121736|    0.619530|    0.011357|
|         198|   -4.039272|   -6.122147|    0.619524|    0.011359|
|         199|   -4.042453|   -6.122648|    0.619519|    0.011362|
|         200|   -4.045629|   -6.123247|    0.619515|    0.011364|
|         201|   -4.048767|   -6.123953|    0.619507|    0.011508|
+-----------------------------------------------------------------------+
|Fixed CL Mode                           |Value                         |
+-----------------------------------------------------------------------+
|Current CL                              |0.619507                      |
|Target CL                               |0.622131                      |
|Previous AOA                            |1.94475                       |
|Changed AoA by                          |0.0130823                     |
+-----------------------------------------------------------------------+
+----------------------------------------------------------------+
|  Inner_Iter|    rms[Rho]|     rms[nu]|          CL|          CD|
+----------------------------------------------------------------+
|         202|   -2.055447|   -5.993408|    0.619503|    0.011510|
|         203|   -2.440746|   -6.051789|    0.619499|    0.011513|
|         204|   -2.683789|   -6.071704|    0.619495|    0.011515|
|         205|   -2.762324|   -6.083642|    0.619491|    0.011518|
|         206|   -2.815222|   -6.092904|    0.619488|    0.011520|
|         207|   -2.882781|   -6.100854|    0.619485|    0.011523|
|         208|   -2.966337|   -6.107809|    0.619483|    0.011525|
|         209|   -3.054725|   -6.113645|    0.619481|    0.011528|
|         210|   -3.132915|   -6.118514|    0.619479|    0.011530|
|         211|   -3.192415|   -6.122568|    0.619477|    0.011533|
|         212|   -3.233295|   -6.125911|    0.619476|    0.011535|
|         213|   -3.257832|   -6.128782|    0.619476|    0.011538|
|         214|   -3.268851|   -6.131456|    0.619475|    0.011540|
|         215|   -3.272009|   -6.134110|    0.619475|    0.011542|
|         216|   -3.274516|   -6.136800|    0.619475|    0.011545|
|         217|   -3.281688|   -6.139547|    0.619476|    0.011547|
|         218|   -3.295311|   -6.142382|    0.619477|    0.011550|
|         219|   -3.314059|   -6.145363|    0.619477|    0.011553|
|         220|   -3.334890|   -6.148585|    0.619478|    0.011555|
|         221|   -3.354877|   -6.152113|    0.619479|    0.011558|
|         222|   -3.372698|   -6.155955|    0.619481|    0.011560|
|         223|   -3.388884|   -6.160071|    0.619482|    0.011563|
|         224|   -3.404812|   -6.164395|    0.619483|    0.011565|
|         225|   -3.421500|   -6.168880|    0.619484|    0.011568|
|         226|   -3.439067|   -6.173481|    0.619485|    0.011571|
|         227|   -3.456885|   -6.178112|    0.619486|    0.011573|
|         228|   -3.473999|   -6.182740|    0.619487|    0.011576|
|         229|   -3.489486|   -6.187328|    0.619488|    0.011579|
|         230|   -3.502631|   -6.191935|    0.619489|    0.011581|
|         231|   -3.513024|   -6.196618|    0.619491|    0.011584|
|         232|   -3.520678|   -6.201415|    0.619493|    0.011587|
|         233|   -3.526127|   -6.206330|    0.619495|    0.011590|
|         234|   -3.530363|   -6.211386|    0.619497|    0.011592|
|         235|   -3.534602|   -6.216564|    0.619501|    0.011595|
|         236|   -3.539979|   -6.221857|    0.619505|    0.011598|
|         237|   -3.547315|   -6.227251|    0.619510|    0.011600|
|         238|   -3.557008|   -6.232691|    0.619516|    0.011603|
|         239|   -3.569019|   -6.238147|    0.619524|    0.011606|
|         240|   -3.582906|   -6.243578|    0.619533|    0.011609|
|         241|   -3.597895|   -6.248943|    0.619544|    0.011611|
|         242|   -3.612990|   -6.254249|    0.619557|    0.011614|
|         243|   -3.627159|   -6.259409|    0.619573|    0.011617|
|         244|   -3.639576|   -6.264419|    0.619590|    0.011620|
|         245|   -3.649851|   -6.269267|    0.619611|    0.011623|
|         246|   -3.658132|   -6.273840|    0.619634|    0.011626|
|         247|   -3.665033|   -6.278143|    0.619660|    0.011629|
|         248|   -3.671414|   -6.282155|    0.619691|    0.011632|
|         249|   -3.678128|   -6.285885|    0.619724|    0.011635|
|         250|   -3.685825|   -6.289297|    0.619762|    0.011639|
|         251|   -3.694856|   -6.292400|    0.619804|    0.011642|
|         252|   -3.705262|   -6.295204|    0.619850|    0.011646|
|         253|   -3.716827|   -6.297745|    0.619901|    0.011649|
|         254|   -3.729159|   -6.300076|    0.619957|    0.011653|
|         255|   -3.741800|   -6.302258|    0.620018|    0.011657|
|         256|   -3.754327|   -6.304323|    0.620083|    0.011661|
|         257|   -3.766437|   -6.306388|    0.620153|    0.011665|
|         258|   -3.777991|   -6.308595|    0.620228|    0.011670|
|         259|   -3.789016|   -6.311029|    0.620307|    0.011674|
|         260|   -3.799658|   -6.313819|    0.620390|    0.011679|
|         261|   -3.810125|   -6.317042|    0.620478|    0.011683|
|         262|   -3.820621|   -6.320818|    0.620569|    0.011688|
|         263|   -3.831304|   -6.325261|    0.620664|    0.011692|
|         264|   -3.842264|   -6.330485|    0.620761|    0.011697|
|         265|   -3.853520|   -6.336607|    0.620860|    0.011702|
|         266|   -3.865036|   -6.343722|    0.620961|    0.011706|
|         267|   -3.876745|   -6.351912|    0.621063|    0.011711|
|         268|   -3.888569|   -6.361193|    0.621165|    0.011715|
|         269|   -3.900440|   -6.371584|    0.621267|    0.011720|
|         270|   -3.912306|   -6.383074|    0.621368|    0.011724|
|         271|   -3.924140|   -6.395665|    0.621467|    0.011728|
|         272|   -3.935934|   -6.409217|    0.621564|    0.011731|
|         273|   -3.947691|   -6.423556|    0.621658|    0.011735|
|         274|   -3.959416|   -6.438398|    0.621748|    0.011738|
|         275|   -3.971110|   -6.453394|    0.621833|    0.011741|
|         276|   -3.982766|   -6.468139|    0.621914|    0.011744|
|         277|   -3.994361|   -6.482075|    0.621989|    0.011746|
|         278|   -4.005862|   -6.494547|    0.622059|    0.011748|
|         279|   -4.017221|   -6.504908|    0.622123|    0.011750|
|         280|   -4.028381|   -6.512572|    0.622180|    0.011751|
|         281|   -4.039275|   -6.517175|    0.622231|    0.011752|
|         282|   -4.049830|   -6.518473|    0.622276|    0.011753|
|         283|   -4.059969|   -6.516516|    0.622313|    0.011754|
|         284|   -4.069615|   -6.511558|    0.622345|    0.011754|
|         285|   -4.078694|   -6.504091|    0.622370|    0.011754|
|         286|   -4.087140|   -6.494700|    0.622388|    0.011753|
|         287|   -4.094896|   -6.484043|    0.622401|    0.011753|
|         288|   -4.101924|   -6.472756|    0.622408|    0.011752|
|         289|   -4.108203|   -6.461397|    0.622409|    0.011751|
|         290|   -4.113734|   -6.450446|    0.622405|    0.011750|
|         291|   -4.118540|   -6.440299|    0.622396|    0.011748|
|         292|   -4.122666|   -6.431254|    0.622383|    0.011746|
|         293|   -4.126176|   -6.423524|    0.622365|    0.011745|
|         294|   -4.129150|   -6.417273|    0.622343|    0.011743|
|         295|   -4.131680|   -6.412623|    0.622318|    0.011741|
|         296|   -4.133864|   -6.409672|    0.622290|    0.011739|
|         297|   -4.135804|   -6.408474|    0.622258|    0.011736|
|         298|   -4.137599|   -6.409077|    0.622224|    0.011734|
|         299|   -4.139345|   -6.411510|    0.622188|    0.011731|
|         300|   -4.141129|   -6.415794|    0.622149|    0.011729|
|         301|   -4.143030|   -6.421943|    0.622108|    0.011726|
|         302|   -4.145117|   -6.429964|    0.622065|    0.011723|
|         303|   -4.147448|   -6.439860|    0.622021|    0.011721|
|         304|   -4.150068|   -6.451623|    0.621975|    0.011718|
|         305|   -4.153016|   -6.465235|    0.621928|    0.011715|
|         306|   -4.156318|   -6.480668|    0.621880|    0.011712|
|         307|   -4.159991|   -6.497881|    0.621831|    0.011709|
|         308|   -4.164047|   -6.516772|    0.621782|    0.011706|
|         309|   -4.168490|   -6.537206|    0.621732|    0.011703|
|         310|   -4.173316|   -6.558983|    0.621681|    0.011700|
|         311|   -4.178519|   -6.581812|    0.621631|    0.011697|
|         312|   -4.184091|   -6.605283|    0.621580|    0.011694|
|         313|   -4.190018|   -6.628832|    0.621530|    0.011690|
|         314|   -4.196288|   -6.651722|    0.621480|    0.011687|
|         315|   -4.202886|   -6.673054|    0.621431|    0.011684|
|         316|   -4.209800|   -6.691710|    0.621383|    0.011681|
|         317|   -4.217016|   -6.706653|    0.621336|    0.011677|
|         318|   -4.224522|   -6.716934|    0.621290|    0.011674|
|         319|   -4.232311|   -6.721942|    0.621246|    0.011671|
|         320|   -4.240372|   -6.721529|    0.621204|    0.011668|
|         321|   -4.248703|   -6.716055|    0.621163|    0.011665|
|         322|   -4.257298|   -6.706310|    0.621125|    0.011661|
|         323|   -4.266157|   -6.693263|    0.621089|    0.011658|
|         324|   -4.275281|   -6.677953|    0.621056|    0.011655|
|         325|   -4.284671|   -6.661327|    0.621026|    0.011652|
|         326|   -4.294329|   -6.644212|    0.620998|    0.011649|
|         327|   -4.304257|   -6.627226|    0.620974|    0.011646|
|         328|   -4.314457|   -6.610807|    0.620952|    0.011644|
|         329|   -4.324928|   -6.595290|    0.620935|    0.011641|
|         330|   -4.335666|   -6.580900|    0.620920|    0.011638|
|         331|   -4.346664|   -6.567767|    0.620909|    0.011636|
|         332|   -4.357908|   -6.555971|    0.620902|    0.011634|
|         333|   -4.369378|   -6.545550|    0.620898|    0.011632|
|         334|   -4.381044|   -6.536515|    0.620898|    0.011630|
|         335|   -4.392868|   -6.528851|    0.620901|    0.011628|
|         336|   -4.404799|   -6.522539|    0.620908|    0.011626|
|         337|   -4.416774|   -6.517543|    0.620918|    0.011625|
|         338|   -4.428718|   -6.513814|    0.620931|    0.011623|
|         339|   -4.440542|   -6.511300|    0.620948|    0.011622|
|         340|   -4.452145|   -6.509939|    0.620967|    0.011621|
|         341|   -4.463414|   -6.509662|    0.620989|    0.011620|
|         342|   -4.474226|   -6.510392|    0.621014|    0.011619|
|         343|   -4.484455|   -6.512043|    0.621042|    0.011618|
|         344|   -4.493974|   -6.514517|    0.621071|    0.011618|
|         345|   -4.502661|   -6.517710|    0.621103|    0.011617|
|         346|   -4.510407|   -6.521509|    0.621136|    0.011617|
|         347|   -4.517123|   -6.525775|    0.621171|    0.011617|
|         348|   -4.522744|   -6.530370|    0.621207|    0.011617|
|         349|   -4.527237|   -6.535150|    0.621244|    0.011617|
|         350|   -4.530601|   -6.539964|    0.621281|    0.011617|
|         351|   -4.532870|   -6.544661|    0.621319|    0.011617|
|         352|   -4.534109|   -6.549093|    0.621357|    0.011617|
|         353|   -4.534413|   -6.553120|    0.621394|    0.011617|
|         354|   -4.533895|   -6.556620|    0.621431|    0.011618|
|         355|   -4.532687|   -6.559498|    0.621468|    0.011618|
|         356|   -4.530927|   -6.561684|    0.621503|    0.011618|
|         357|   -4.528759|   -6.563136|    0.621537|    0.011619|
|         358|   -4.526321|   -6.563846|    0.621570|    0.011619|
|         359|   -4.523745|   -6.563842|    0.621601|    0.011619|
|         360|   -4.521155|   -6.563170|    0.621631|    0.011620|
|         361|   -4.518661|   -6.561904|    0.621659|    0.011620|
|         362|   -4.516361|   -6.560133|    0.621684|    0.011620|
|         363|   -4.514342|   -6.557954|    0.621708|    0.011620|
|         364|   -4.512675|   -6.555469|    0.621729|    0.011620|
|         365|   -4.511421|   -6.552773|    0.621748|    0.011620|
|         366|   -4.510630|   -6.549955|    0.621765|    0.011620|
|         367|   -4.510340|   -6.547090|    0.621779|    0.011620|
|         368|   -4.510579|   -6.544242|    0.621791|    0.011620|
|         369|   -4.511367|   -6.541455|    0.621801|    0.011620|
|         370|   -4.512714|   -6.538762|    0.621808|    0.011619|
|         371|   -4.514621|   -6.536177|    0.621813|    0.011619|
|         372|   -4.517082|   -6.533700|    0.621817|    0.011619|
|         373|   -4.520081|   -6.531322|    0.621818|    0.011618|
|         374|   -4.523597|   -6.529020|    0.621818|    0.011618|
|         375|   -4.527597|   -6.526767|    0.621816|    0.011617|
|         376|   -4.532044|   -6.524529|    0.621812|    0.011617|
|         377|   -4.536889|   -6.522269|    0.621807|    0.011616|
|         378|   -4.542075|   -6.519953|    0.621801|    0.011615|
|         379|   -4.547539|   -6.517551|    0.621794|    0.011615|
|         380|   -4.553206|   -6.515038|    0.621786|    0.011614|
|         381|   -4.558997|   -6.512400|    0.621778|    0.011614|
|         382|   -4.564824|   -6.509632|    0.621769|    0.011613|
|         383|   -4.570592|   -6.506739|    0.621759|    0.011613|
|         384|   -4.576205|   -6.503741|    0.621750|    0.011613|
|         385|   -4.581562|   -6.500663|    0.621741|    0.011612|
|         386|   -4.586567|   -6.497546|    0.621732|    0.011612|
|         387|   -4.591127|   -6.494434|    0.621724|    0.011612|
|         388|   -4.595155|   -6.491380|    0.621716|    0.011612|
|         389|   -4.598579|   -6.488438|    0.621709|    0.011612|
|         390|   -4.601342|   -6.485663|    0.621702|    0.011613|
|         391|   -4.603402|   -6.483111|    0.621697|    0.011613|
|         392|   -4.604740|   -6.480830|    0.621692|    0.011614|
|         393|   -4.605357|   -6.478868|    0.621689|    0.011614|
|         394|   -4.605274|   -6.477265|    0.621686|    0.011615|
|         395|   -4.604531|   -6.476054|    0.621685|    0.011616|
|         396|   -4.603187|   -6.475262|    0.621684|    0.011617|
|         397|   -4.601311|   -6.474907|    0.621685|    0.011618|
|         398|   -4.598985|   -6.474998|    0.621687|    0.011620|
|         399|   -4.596297|   -6.475538|    0.621690|    0.011621|
|         400|   -4.593338|   -6.476512|    0.621694|    0.011623|
|         401|   -4.590197|   -6.477904|    0.621698|    0.011648|
+-----------------------------------------------------------------------+
|Fixed CL Mode                           |Value                         |
+-----------------------------------------------------------------------+
|Current CL                              |0.621698                      |
|Target CL                               |0.622131                      |
|Previous AOA                            |1.95783                       |
|Changed AoA by                          |0.00218616                    |
+-----------------------------------------------------------------------+
+----------------------------------------------------------------+
|  Inner_Iter|    rms[Rho]|     rms[nu]|          CL|          CD|
+----------------------------------------------------------------+
|         402|   -2.832528|   -6.455035|    0.621704|    0.011650|
|         403|   -3.217460|   -6.469332|    0.621710|    0.011652|
|         404|   -3.457628|   -6.475268|    0.621717|    0.011654|
|         405|   -3.532865|   -6.479913|    0.621725|    0.011656|
|         406|   -3.583333|   -6.484303|    0.621733|    0.011658|
|         407|   -3.648489|   -6.488699|    0.621742|    0.011660|
|         408|   -3.729277|   -6.493053|    0.621751|    0.011662|
|         409|   -3.814954|   -6.497354|    0.621760|    0.011664|
|         410|   -3.891764|   -6.501591|    0.621769|    0.011666|
|         411|   -3.952215|   -6.505740|    0.621779|    0.011668|
|         412|   -3.996126|   -6.509793|    0.621788|    0.011670|
|         413|   -4.024699|   -6.513765|    0.621797|    0.011672|
|         414|   -4.039507|   -6.517691|    0.621806|    0.011674|
|         415|   -4.045303|   -6.521596|    0.621814|    0.011676|
|         416|   -4.049088|   -6.525493|    0.621822|    0.011677|
|         417|   -4.056423|   -6.529383|    0.621830|    0.011679|
|         418|   -4.069440|   -6.533273|    0.621837|    0.011680|
|         419|   -4.087131|   -6.537187|    0.621843|    0.011681|
|         420|   -4.106781|   -6.541159|    0.621849|    0.011682|
|         421|   -4.125777|   -6.545231|    0.621854|    0.011682|
|         422|   -4.143012|   -6.549433|    0.621859|    0.011683|
|         423|   -4.159035|   -6.553783|    0.621863|    0.011683|
|         424|   -4.175062|   -6.558283|    0.621867|    0.011683|
|         425|   -4.191865|   -6.562926|    0.621870|    0.011683|
|         426|   -4.209299|   -6.567699|    0.621872|    0.011683|
|         427|   -4.226503|   -6.572586|    0.621874|    0.011682|
|         428|   -4.242365|   -6.577562|    0.621875|    0.011681|
|         429|   -4.255928|   -6.582605|    0.621876|    0.011680|
|         430|   -4.266588|   -6.587694|    0.621877|    0.011679|
|         431|   -4.274172|   -6.592801|    0.621878|    0.011678|
|         432|   -4.278971|   -6.597892|    0.621878|    0.011676|
|         433|   -4.281738|   -6.602931|    0.621878|    0.011674|
|         434|   -4.283560|   -6.607871|    0.621878|    0.011672|
|         435|   -4.285608|   -6.612659|    0.621878|    0.011670|
|         436|   -4.288882|   -6.617252|    0.621878|    0.011667|
|         437|   -4.294035|   -6.621600|    0.621878|    0.011665|
|         438|   -4.301311|   -6.625667|    0.621879|    0.011662|
|         439|   -4.310557|   -6.629432|    0.621879|    0.011659|
|         440|   -4.321288|   -6.632872|    0.621880|    0.011657|
|         441|   -4.332768|   -6.635988|    0.621882|    0.011654|
|         442|   -4.344136|   -6.638778|    0.621884|    0.011651|
|         443|   -4.354573|   -6.641257|    0.621887|    0.011647|
|         444|   -4.363490|   -6.643443|    0.621890|    0.011644|
|         445|   -4.370676|   -6.645372|    0.621894|    0.011641|
|         446|   -4.376342|   -6.647088|    0.621898|    0.011638|
|         447|   -4.381028|   -6.648637|    0.621903|    0.011635|
|         448|   -4.385420|   -6.650062|    0.621909|    0.011632|
|         449|   -4.390168|   -6.651408|    0.621916|    0.011629|
|         450|   -4.395743|   -6.652728|    0.621924|    0.011626|
|         451|   -4.402378|   -6.654069|    0.621933|    0.011623|
|         452|   -4.410072|   -6.655475|    0.621942|    0.011620|
|         453|   -4.418634|   -6.656978|    0.621952|    0.011617|
|         454|   -4.427762|   -6.658623|    0.621964|    0.011614|
|         455|   -4.437119|   -6.660448|    0.621976|    0.011612|
|         456|   -4.446414|   -6.662482|    0.621989|    0.011609|
|         457|   -4.455450|   -6.664751|    0.622003|    0.011607|
|         458|   -4.464147|   -6.667278|    0.622017|    0.011605|
|         459|   -4.472532|   -6.670081|    0.622033|    0.011603|
|         460|   -4.480706|   -6.673171|    0.622049|    0.011601|
|         461|   -4.488797|   -6.676549|    0.622066|    0.011599|
|         462|   -4.496923|   -6.680219|    0.622083|    0.011597|
|         463|   -4.505164|   -6.684182|    0.622101|    0.011596|
|         464|   -4.513551|   -6.688433|    0.622119|    0.011594|
|         465|   -4.522064|   -6.692962|    0.622138|    0.011593|
|         466|   -4.530650|   -6.697752|    0.622157|    0.011592|
|         467|   -4.539236|   -6.702781|    0.622175|    0.011591|
|         468|   -4.547741|   -6.708021|    0.622194|    0.011590|
|         469|   -4.556093|   -6.713435|    0.622213|    0.011589|
|         470|   -4.564234|   -6.718994|    0.622231|    0.011588|
|         471|   -4.572120|   -6.724656|    0.622249|    0.011587|
|         472|   -4.579723|   -6.730374|    0.622266|    0.011587|
|         473|   -4.587022|   -6.736097|    0.622283|    0.011586|
|         474|   -4.594006|   -6.741772|    0.622299|    0.011585|
|         475|   -4.600662|   -6.747350|    0.622314|    0.011585|
|         476|   -4.606984|   -6.752780|    0.622328|    0.011584|
|         477|   -4.612962|   -6.758013|    0.622342|    0.011583|
|         478|   -4.618590|   -6.763005|    0.622354|    0.011583|
|         479|   -4.623864|   -6.767717|    0.622365|    0.011582|
|         480|   -4.628785|   -6.772112|    0.622375|    0.011582|
|         481|   -4.633357|   -6.776162|    0.622384|    0.011581|
|         482|   -4.637591|   -6.779847|    0.622392|    0.011580|
|         483|   -4.641501|   -6.783154|    0.622399|    0.011580|
|         484|   -4.645109|   -6.786088|    0.622405|    0.011579|
|         485|   -4.648440|   -6.788665|    0.622410|    0.011578|
|         486|   -4.651524|   -6.790906|    0.622413|    0.011577|
|         487|   -4.654392|   -6.792838|    0.622416|    0.011577|
|         488|   -4.657084|   -6.794493|    0.622417|    0.011576|
|         489|   -4.659636|   -6.795910|    0.622418|    0.011575|
|         490|   -4.662091|   -6.797127|    0.622418|    0.011574|
|         491|   -4.664491|   -6.798193|    0.622417|    0.011574|
|         492|   -4.666878|   -6.799143|    0.622415|    0.011573|
|         493|   -4.669295|   -6.800020|    0.622412|    0.011572|
|         494|   -4.671783|   -6.800861|    0.622409|    0.011571|
|         495|   -4.674381|   -6.801701|    0.622405|    0.011570|
|         496|   -4.677127|   -6.802572|    0.622401|    0.011569|
|         497|   -4.680053|   -6.803500|    0.622396|    0.011569|
|         498|   -4.683190|   -6.804506|    0.622390|    0.011568|
|         499|   -4.686564|   -6.805606|    0.622384|    0.011567|
|         500|   -4.690196|   -6.806811|    0.622377|    0.011566|
|         501|   -4.694104|   -6.808126|    0.622370|    0.011565|
|         502|   -4.698300|   -6.809552|    0.622362|    0.011565|
|         503|   -4.702790|   -6.811084|    0.622354|    0.011564|
|         504|   -4.707579|   -6.812717|    0.622345|    0.011563|
|         505|   -4.712663|   -6.814467|    0.622336|    0.011563|
|         506|   -4.718037|   -6.816311|    0.622327|    0.011562|
|         507|   -4.723691|   -6.818201|    0.622317|    0.011561|
|         508|   -4.729610|   -6.820121|    0.622307|    0.011561|
|         509|   -4.735777|   -6.822047|    0.622297|    0.011560|
|         510|   -4.742168|   -6.823955|    0.622286|    0.011560|
|         511|   -4.748763|   -6.825822|    0.622275|    0.011559|
|         512|   -4.755537|   -6.827627|    0.622263|    0.011559|
|         513|   -4.762463|   -6.829348|    0.622252|    0.011559|
|         514|   -4.769513|   -6.830965|    0.622240|    0.011558|
|         515|   -4.776660|   -6.832461|    0.622228|    0.011558|
|         516|   -4.783875|   -6.833819|    0.622216|    0.011558|
|         517|   -4.791131|   -6.835028|    0.622204|    0.011558|
|         518|   -4.798399|   -6.836080|    0.622192|    0.011558|
|         519|   -4.805653|   -6.836969|    0.622180|    0.011558|
|         520|   -4.812868|   -6.837691|    0.622169|    0.011558|
|         521|   -4.820019|   -6.838250|    0.622157|    0.011558|
|         522|   -4.827085|   -6.838649|    0.622145|    0.011558|
|         523|   -4.834043|   -6.838895|    0.622134|    0.011558|
|         524|   -4.840876|   -6.839005|    0.622123|    0.011558|
|         525|   -4.847568|   -6.838997|    0.622113|    0.011559|
|         526|   -4.854103|   -6.838896|    0.622103|    0.011559|
|         527|   -4.860469|   -6.838731|    0.622093|    0.011559|
|         528|   -4.866656|   -6.838537|    0.622084|    0.011560|
|         529|   -4.872655|   -6.838379|    0.622075|    0.011560|
|         530|   -4.878461|   -6.838240|    0.622067|    0.011561|
|         531|   -4.884068|   -6.838174|    0.622060|    0.011562|
|         532|   -4.889475|   -6.838234|    0.622053|    0.011562|
|         533|   -4.894681|   -6.838471|    0.622047|    0.011563|
|         534|   -4.899686|   -6.838937|    0.622042|    0.011564|
|         535|   -4.904493|   -6.839683|    0.622037|    0.011565|
|         536|   -4.909105|   -6.840758|    0.622033|    0.011566|
|         537|   -4.913528|   -6.842206|    0.622030|    0.011567|
|         538|   -4.917766|   -6.844071|    0.622027|    0.011568|
|         539|   -4.921827|   -6.846389|    0.622026|    0.011569|
|         540|   -4.925718|   -6.849195|    0.622024|    0.011570|
|         541|   -4.929445|   -6.852516|    0.622024|    0.011571|
|         542|   -4.933017|   -6.856373|    0.622024|    0.011572|
|         543|   -4.936441|   -6.860785|    0.622025|    0.011573|
|         544|   -4.939726|   -6.865762|    0.622026|    0.011574|
|         545|   -4.942879|   -6.871305|    0.622028|    0.011575|
|         546|   -4.945907|   -6.877408|    0.622031|    0.011576|
|         547|   -4.948817|   -6.884059|    0.622033|    0.011577|
|         548|   -4.951613|   -6.891234|    0.622037|    0.011579|
|         549|   -4.954302|   -6.898905|    0.622040|    0.011580|
|         550|   -4.956886|   -6.907031|    0.622044|    0.011581|
|         551|   -4.959371|   -6.915566|    0.622048|    0.011582|
|         552|   -4.961759|   -6.924452|    0.622053|    0.011583|
|         553|   -4.964051|   -6.933624|    0.622057|    0.011584|
|         554|   -4.966250|   -6.943007|    0.622062|    0.011585|
|         555|   -4.968358|   -6.952519|    0.622066|    0.011586|
|         556|   -4.970376|   -6.962073|    0.622071|    0.011587|
|         557|   -4.972307|   -6.971578|    0.622075|    0.011588|
|         558|   -4.974152|   -6.980944|    0.622080|    0.011588|
|         559|   -4.975915|   -6.990082|    0.622084|    0.011589|
|         560|   -4.977604|   -6.998910|    0.622088|    0.011590|
|         561|   -4.979223|   -7.007353|    0.622091|    0.011590|
|         562|   -4.980781|   -7.015347|    0.622095|    0.011591|
|         563|   -4.982288|   -7.022838|    0.622098|    0.011591|
|         564|   -4.983755|   -7.029792|    0.622101|    0.011592|
|         565|   -4.985195|   -7.036187|    0.622103|    0.011592|
|         566|   -4.986622|   -7.042022|    0.622105|    0.011592|
|         567|   -4.988052|   -7.047313|    0.622107|    0.011593|
|         568|   -4.989500|   -7.052089|    0.622108|    0.011593|
|         569|   -4.990983|   -7.056396|    0.622109|    0.011593|
|         570|   -4.992516|   -7.060287|    0.622110|    0.011593|
|         571|   -4.994114|   -7.063824|    0.622110|    0.011593|
|         572|   -4.995793|   -7.067068|    0.622109|    0.011592|
|         573|   -4.997566|   -7.070080|    0.622109|    0.011592|
|         574|   -4.999442|   -7.072916|    0.622108|    0.011592|
|         575|   -5.001432|   -7.075627|    0.622107|    0.011592|
|         576|   -5.003542|   -7.078256|    0.622105|    0.011591|
|         577|   -5.005775|   -7.080839|    0.622104|    0.011591|
|         578|   -5.008131|   -7.083402|    0.622102|    0.011590|
|         579|   -5.010610|   -7.085968|    0.622099|    0.011589|
|         580|   -5.013206|   -7.088549|    0.622097|    0.011589|
|         581|   -5.015911|   -7.091153|    0.622095|    0.011588|
|         582|   -5.018715|   -7.093783|    0.622092|    0.011587|
|         583|   -5.021606|   -7.096437|    0.622089|    0.011587|
|         584|   -5.024571|   -7.099112|    0.622087|    0.011586|
|         585|   -5.027594|   -7.101805|    0.622084|    0.011585|
|         586|   -5.030660|   -7.104513|    0.622081|    0.011584|
|         587|   -5.033753|   -7.107236|    0.622079|    0.011583|
|         588|   -5.036858|   -7.109975|    0.622076|    0.011582|
|         589|   -5.039962|   -7.112738|    0.622074|    0.011582|
|         590|   -5.043052|   -7.115535|    0.622072|    0.011581|
|         591|   -5.046116|   -7.118380|    0.622070|    0.011580|
|         592|   -5.049146|   -7.121294|    0.622068|    0.011579|
|         593|   -5.052138|   -7.124299|    0.622066|    0.011578|
|         594|   -5.055090|   -7.127421|    0.622065|    0.011577|
|         595|   -5.058002|   -7.130688|    0.622063|    0.011576|
|         596|   -5.060878|   -7.134133|    0.622062|    0.011575|
|         597|   -5.063726|   -7.137786|    0.622062|    0.011575|
|         598|   -5.066554|   -7.141678|    0.622061|    0.011574|
|         599|   -5.069374|   -7.145824|    0.622061|    0.011573|
|         600|   -5.072198|   -7.150231|    0.622061|    0.011572|
|         601|   -5.075041|   -7.154945|    0.622061|    0.011575|
+-----------------------------------------------------------------------+
|Fixed CL Mode                           |Value                         |
+-----------------------------------------------------------------------+
|Current CL                              |0.622061                      |
|Target CL                               |0.622131                      |
|Previous AOA                            |1.96002                       |
|Changed AoA by                          |0.000351721                   |
+-----------------------------------------------------------------------+
+----------------------------------------------------------------+
|  Inner_Iter|    rms[Rho]|     rms[nu]|          CL|          CD|
+----------------------------------------------------------------+
|         602|   -3.625881|   -7.144831|    0.622061|    0.011574|
|         603|   -4.009693|   -7.157512|    0.622062|    0.011574|
|         604|   -4.246516|   -7.165249|    0.622063|    0.011573|
|         605|   -4.319786|   -7.172329|    0.622064|    0.011572|
|         606|   -4.369277|   -7.179391|    0.622065|    0.011571|
|         607|   -4.433146|   -7.186552|    0.622066|    0.011570|
|         608|   -4.511770|   -7.193800|    0.622067|    0.011570|
|         609|   -4.594255|   -7.201103|    0.622069|    0.011569|
|         610|   -4.667246|   -7.208432|    0.622071|    0.011568|
|         611|   -4.723918|   -7.215746|    0.622073|    0.011567|
|         612|   -4.764543|   -7.222993|    0.622075|    0.011567|
|         613|   -4.790694|   -7.230138|    0.622077|    0.011566|
|         614|   -4.804198|   -7.237145|    0.622079|    0.011565|
|         615|   -4.809518|   -7.243960|    0.622081|    0.011564|
|         616|   -4.812922|   -7.250517|    0.622083|    0.011563|
|         617|   -4.819326|   -7.256736|    0.622085|    0.011562|
|         618|   -4.830570|   -7.262537|    0.622087|    0.011562|
|         619|   -4.845713|   -7.267856|    0.622089|    0.011561|
|         620|   -4.862375|   -7.272648|    0.622091|    0.011560|
|         621|   -4.878380|   -7.276886|    0.622093|    0.011559|
|         622|   -4.892900|   -7.280552|    0.622096|    0.011558|
|         623|   -4.906478|   -7.283642|    0.622098|    0.011557|
|         624|   -4.920137|   -7.286167|    0.622100|    0.011555|
|         625|   -4.934475|   -7.288143|    0.622102|    0.011554|
|         626|   -4.949323|   -7.289603|    0.622104|    0.011553|
|         627|   -4.963950|   -7.290586|    0.622106|    0.011552|
|         628|   -4.977465|   -7.291177|    0.622108|    0.011551|
|         629|   -4.989135|   -7.291388|    0.622109|    0.011550|
|         630|   -4.998527|   -7.291297|    0.622111|    0.011548|
|         631|   -5.005538|   -7.290966|    0.622113|    0.011547|
|         632|   -5.010408|   -7.290447|    0.622115|    0.011546|
|         633|   -5.013711|   -7.289794|    0.622117|    0.011544|
|         634|   -5.016261|   -7.289054|    0.622119|    0.011543|
|         635|   -5.018945|   -7.288275|    0.622121|    0.011542|
|         636|   -5.022522|   -7.287501|    0.622122|    0.011540|
|         637|   -5.027483|   -7.286774|    0.622124|    0.011539|
|         638|   -5.033998|   -7.286133|    0.622126|    0.011537|
|         639|   -5.041924|   -7.285609|    0.622128|    0.011536|
|         640|   -5.050859|   -7.285232|    0.622130|    0.011535|
|         641|   -5.060223|   -7.285031|    0.622132|    0.011533|
|         642|   -5.069363|   -7.285030|    0.622134|    0.011532|
|         643|   -5.077682|   -7.285253|    0.622136|    0.011530|
|         644|   -5.084777|   -7.285718|    0.622138|    0.011529|
|         645|   -5.090530|   -7.286443|    0.622141|    0.011528|
|         646|   -5.095117|   -7.287442|    0.622143|    0.011526|
|         647|   -5.098940|   -7.288725|    0.622145|    0.011525|
|         648|   -5.102494|   -7.290298|    0.622147|    0.011524|
|         649|   -5.106236|   -7.292162|    0.622150|    0.011523|
|         650|   -5.110492|   -7.294313|    0.622153|    0.011522|
|         651|   -5.115406|   -7.296748|    0.622155|    0.011520|
|         652|   -5.120957|   -7.299459|    0.622158|    0.011519|
|         653|   -5.126986|   -7.302440|    0.622161|    0.011518|
|         654|   -5.133264|   -7.305681|    0.622164|    0.011517|
|         655|   -5.139547|   -7.309164|    0.622167|    0.011516|
|         656|   -5.145633|   -7.312873|    0.622170|    0.011515|
|         657|   -5.151393|   -7.316796|    0.622173|    0.011515|
|         658|   -5.156780|   -7.320911|    0.622176|    0.011514|
|         659|   -5.161819|   -7.325192|    0.622179|    0.011513|
|         660|   -5.166581|   -7.329615|    0.622183|    0.011513|
|         661|   -5.171152|   -7.334154|    0.622186|    0.011512|
|         662|   -5.175606|   -7.338784|    0.622190|    0.011511|
|         663|   -5.179993|   -7.343482|    0.622193|    0.011511|
|         664|   -5.184332|   -7.348223|    0.622197|    0.011510|
|         665|   -5.188614|   -7.352994|    0.622201|    0.011510|
|         666|   -5.192816|   -7.357773|    0.622204|    0.011510|
|         667|   -5.196903|   -7.362538|    0.622208|    0.011510|
|         668|   -5.200845|   -7.367264|    0.622212|    0.011509|
|         669|   -5.204615|   -7.371918|    0.622215|    0.011509|
|         670|   -5.208200|   -7.376460|    0.622219|    0.011509|
|         671|   -5.211596|   -7.380845|    0.622222|    0.011509|
|         672|   -5.214806|   -7.385026|    0.622226|    0.011509|
|         673|   -5.217837|   -7.388952|    0.622229|    0.011509|
|         674|   -5.220702|   -7.392566|    0.622232|    0.011509|
|         675|   -5.223411|   -7.395818|    0.622235|    0.011509|
|         676|   -5.225976|   -7.398661|    0.622238|    0.011509|
|         677|   -5.228405|   -7.401041|    0.622241|    0.011509|
|         678|   -5.230707|   -7.402925|    0.622244|    0.011510|
|         679|   -5.232893|   -7.404288|    0.622246|    0.011510|
|         680|   -5.234970|   -7.405110|    0.622249|    0.011510|
|         681|   -5.236949|   -7.405387|    0.622251|    0.011510|
|         682|   -5.238842|   -7.405132|    0.622253|    0.011511|
|         683|   -5.240660|   -7.404360|    0.622255|    0.011511|
|         684|   -5.242420|   -7.403094|    0.622257|    0.011511|
|         685|   -5.244135|   -7.401363|    0.622258|    0.011512|
|         686|   -5.245825|   -7.399203|    0.622260|    0.011512|
|         687|   -5.247509|   -7.396652|    0.622261|    0.011513|
|         688|   -5.249205|   -7.393755|    0.622262|    0.011513|
|         689|   -5.250933|   -7.390559|    0.622263|    0.011514|
|         690|   -5.252715|   -7.387114|    0.622264|    0.011514|
|         691|   -5.254572|   -7.383473|    0.622265|    0.011514|
|         692|   -5.256524|   -7.379687|    0.622265|    0.011515|
|         693|   -5.258592|   -7.375808|    0.622266|    0.011516|
|         694|   -5.260794|   -7.371885|    0.622266|    0.011516|
|         695|   -5.263147|   -7.367961|    0.622266|    0.011517|
|         696|   -5.265666|   -7.364076|    0.622266|    0.011517|
|         697|   -5.268368|   -7.360269|    0.622266|    0.011518|
|         698|   -5.271264|   -7.356570|    0.622266|    0.011518|
|         699|   -5.274363|   -7.353004|    0.622266|    0.011519|
|         700|   -5.277670|   -7.349595|    0.622265|    0.011520|
|         701|   -5.281190|   -7.346357|    0.622265|    0.011520|
|         702|   -5.284923|   -7.343303|    0.622264|    0.011521|
|         703|   -5.288865|   -7.340443|    0.622264|    0.011521|
|         704|   -5.293009|   -7.337780|    0.622263|    0.011522|
|         705|   -5.297345|   -7.335312|    0.622262|    0.011523|
|         706|   -5.301862|   -7.333038|    0.622261|    0.011523|
|         707|   -5.306542|   -7.330951|    0.622260|    0.011524|
|         708|   -5.311370|   -7.329042|    0.622259|    0.011525|
|         709|   -5.316324|   -7.327298|    0.622258|    0.011525|
|         710|   -5.321383|   -7.325710|    0.622256|    0.011526|
|         711|   -5.326525|   -7.324262|    0.622255|    0.011527|
|         712|   -5.331726|   -7.322939|    0.622254|    0.011527|
|         713|   -5.336962|   -7.321725|    0.622252|    0.011528|
|         714|   -5.342210|   -7.320603|    0.622250|    0.011529|
|         715|   -5.347448|   -7.319555|    0.622249|    0.011529|
|         716|   -5.352654|   -7.318561|    0.622247|    0.011530|
|         717|   -5.357809|   -7.317605|    0.622246|    0.011531|
|         718|   -5.362895|   -7.316670|    0.622244|    0.011531|
|         719|   -5.367896|   -7.315741|    0.622242|    0.011532|
|         720|   -5.372799|   -7.314805|    0.622240|    0.011533|
|         721|   -5.377594|   -7.313850|    0.622239|    0.011533|
|         722|   -5.382271|   -7.312867|    0.622237|    0.011534|
|         723|   -5.386825|   -7.311851|    0.622235|    0.011535|
|         724|   -5.391249|   -7.310798|    0.622234|    0.011535|
|         725|   -5.395540|   -7.309708|    0.622232|    0.011536|
|         726|   -5.399696|   -7.308581|    0.622231|    0.011536|
|         727|   -5.403718|   -7.307424|    0.622229|    0.011537|
|         728|   -5.407605|   -7.306240|    0.622228|    0.011538|
|         729|   -5.411358|   -7.305037|    0.622227|    0.011538|
|         730|   -5.414977|   -7.303823|    0.622226|    0.011539|
|         731|   -5.418463|   -7.302606|    0.622225|    0.011539|
|         732|   -5.421816|   -7.301399|    0.622224|    0.011540|
|         733|   -5.425035|   -7.300211|    0.622223|    0.011540|
|         734|   -5.428120|   -7.299054|    0.622223|    0.011541|
|         735|   -5.431069|   -7.297934|    0.622222|    0.011541|
|         736|   -5.433880|   -7.296859|    0.622222|    0.011542|
|         737|   -5.436552|   -7.295838|    0.622221|    0.011542|
|         738|   -5.439082|   -7.294846|    0.622221|    0.011543|
|         739|   -5.441470|   -7.293870|    0.622221|    0.011543|
|         740|   -5.443714|   -7.292957|    0.622221|    0.011544|
|         741|   -5.445815|   -7.292116|    0.622222|    0.011544|
|         742|   -5.447772|   -7.291350|    0.622222|    0.011545|
|         743|   -5.449588|   -7.290654|    0.622222|    0.011545|
|         744|   -5.451266|   -7.290019|    0.622223|    0.011545|
|         745|   -5.452809|   -7.289435|    0.622224|    0.011546|
|         746|   -5.454224|   -7.288892|    0.622225|    0.011546|
|         747|   -5.455518|   -7.288375|    0.622226|    0.011546|
|         748|   -5.456699|   -7.287872|    0.622227|    0.011547|
|         749|   -5.457776|   -7.287369|    0.622228|    0.011547|
|         750|   -5.458757|   -7.286852|    0.622229|    0.011547|
|         751|   -5.459654|   -7.286306|    0.622230|    0.011547|
|         752|   -5.460477|   -7.285721|    0.622231|    0.011548|
|         753|   -5.461239|   -7.285084|    0.622233|    0.011548|
|         754|   -5.461951|   -7.284382|    0.622234|    0.011548|
|         755|   -5.462622|   -7.283609|    0.622236|    0.011548|
|         756|   -5.463264|   -7.282758|    0.622237|    0.011548|
|         757|   -5.463887|   -7.281824|    0.622239|    0.011548|
|         758|   -5.464499|   -7.280805|    0.622240|    0.011548|
|         759|   -5.465112|   -7.279702|    0.622241|    0.011548|
|         760|   -5.465732|   -7.278516|    0.622243|    0.011548|
|         761|   -5.466368|   -7.277253|    0.622244|    0.011548|
|         762|   -5.467027|   -7.275920|    0.622246|    0.011548|
|         763|   -5.467717|   -7.274524|    0.622247|    0.011548|
|         764|   -5.468442|   -7.273075|    0.622249|    0.011548|
|         765|   -5.469209|   -7.271584|    0.622250|    0.011548|
|         766|   -5.470022|   -7.270063|    0.622251|    0.011548|
|         767|   -5.470887|   -7.268524|    0.622253|    0.011548|
|         768|   -5.471808|   -7.266978|    0.622254|    0.011548|
|         769|   -5.472788|   -7.265438|    0.622255|    0.011548|
|         770|   -5.473831|   -7.263913|    0.622256|    0.011547|
|         771|   -5.474940|   -7.262415|    0.622257|    0.011547|
|         772|   -5.476116|   -7.260952|    0.622259|    0.011547|
|         773|   -5.477364|   -7.259533|    0.622260|    0.011546|
|         774|   -5.478683|   -7.258164|    0.622261|    0.011546|
|         775|   -5.480076|   -7.256850|    0.622262|    0.011546|
|         776|   -5.481541|   -7.255596|    0.622263|    0.011545|
|         777|   -5.483079|   -7.254405|    0.622264|    0.011545|
|         778|   -5.484688|   -7.253279|    0.622265|    0.011545|
|         779|   -5.486365|   -7.252219|    0.622266|    0.011544|
|         780|   -5.488110|   -7.251225|    0.622267|    0.011544|
|         781|   -5.489917|   -7.250295|    0.622268|    0.011543|
|         782|   -5.491783|   -7.249429|    0.622269|    0.011543|
|         783|   -5.493704|   -7.248622|    0.622271|    0.011542|
|         784|   -5.495674|   -7.247874|    0.622272|    0.011542|
|         785|   -5.497687|   -7.247179|    0.622273|    0.011541|
|         786|   -5.499738|   -7.246535|    0.622274|    0.011541|
|         787|   -5.501821|   -7.245938|    0.622275|    0.011540|
|         788|   -5.503929|   -7.245384|    0.622277|    0.011540|
|         789|   -5.506055|   -7.244868|    0.622278|    0.011539|
|         790|   -5.508193|   -7.244387|    0.622279|    0.011538|
|         791|   -5.510337|   -7.243938|    0.622281|    0.011538|
|         792|   -5.512483|   -7.243515|    0.622282|    0.011537|
|         793|   -5.514624|   -7.243115|    0.622284|    0.011537|
|         794|   -5.516754|   -7.242735|    0.622286|    0.011536|
|         795|   -5.518870|   -7.242371|    0.622287|    0.011536|
|         796|   -5.520967|   -7.242019|    0.622289|    0.011535|
|         797|   -5.523044|   -7.241677|    0.622291|    0.011534|
|         798|   -5.525097|   -7.241339|    0.622293|    0.011534|
|         799|   -5.527126|   -7.241004|    0.622295|    0.011533|
|         800|   -5.529130|   -7.240667|    0.622297|    0.011533|
|         801|   -5.531108|   -7.240327|    0.622299|    0.011523|
+-----------------------------------------------------------------------+
|Fixed CL Mode                           |Value                         |
+-----------------------------------------------------------------------+
|Current CL                              |0.622299                      |
|Target CL                               |0.622131                      |
|Previous AOA                            |1.96037                       |
|Changed AoA by                          |-0.000828581                  |
+-----------------------------------------------------------------------+
+----------------------------------------------------------------+
|  Inner_Iter|    rms[Rho]|     rms[nu]|          CL|          CD|
+----------------------------------------------------------------+
|         802|   -3.253776|   -7.142122|    0.622301|    0.011523|
|         803|   -3.639037|   -7.186627|    0.622303|    0.011522|
|         804|   -3.882582|   -7.200556|    0.622306|    0.011521|
|         805|   -3.962009|   -7.208014|    0.622308|    0.011521|
|         806|   -4.015619|   -7.213241|    0.622310|    0.011520|
|         807|   -4.083790|   -7.217276|    0.622313|    0.011520|
|         808|   -4.167937|   -7.220356|    0.622315|    0.011519|
|         809|   -4.256815|   -7.222593|    0.622318|    0.011519|
|         810|   -4.335180|   -7.224091|    0.622320|    0.011518|
|         811|   -4.394455|   -7.224904|    0.622323|    0.011518|
|         812|   -4.434862|   -7.225126|    0.622325|    0.011517|
|         813|   -4.458869|   -7.224934|    0.622328|    0.011517|
|         814|   -4.469433|   -7.224549|    0.622331|    0.011516|
|         815|   -4.472292|   -7.224138|    0.622333|    0.011516|
|         816|   -4.474685|   -7.223766|    0.622336|    0.011515|
|         817|   -4.481919|   -7.223426|    0.622339|    0.011515|
|         818|   -4.495758|   -7.223098|    0.622341|    0.011514|
|         819|   -4.514844|   -7.222789|    0.622344|    0.011514|
|         820|   -4.536087|   -7.222532|    0.622347|    0.011513|
|         821|   -4.556495|   -7.222368|    0.622350|    0.011513|
|         822|   -4.574695|   -7.222290|    0.622353|    0.011513|
|         823|   -4.591207|   -7.222280|    0.622355|    0.011512|
|         824|   -4.607430|   -7.222316|    0.622358|    0.011512|
|         825|   -4.624418|   -7.222324|    0.622361|    0.011511|
|         826|   -4.642324|   -7.222271|    0.622364|    0.011511|
|         827|   -4.660530|   -7.222138|    0.622367|    0.011510|
|         828|   -4.678076|   -7.221921|    0.622370|    0.011510|
|         829|   -4.694012|   -7.221624|    0.622373|    0.011510|
|         830|   -4.707576|   -7.221261|    0.622375|    0.011509|
|         831|   -4.718303|   -7.220850|    0.622378|    0.011509|
|         832|   -4.726158|   -7.220401|    0.622381|    0.011508|
|         833|   -4.731649|   -7.219921|    0.622384|    0.011508|
|         834|   -4.735775|   -7.219419|    0.622386|    0.011508|
|         835|   -4.739782|   -7.218903|    0.622389|    0.011507|
|         836|   -4.744838|   -7.218374|    0.622392|    0.011507|
|         837|   -4.751789|   -7.217828|    0.622394|    0.011506|
|         838|   -4.761043|   -7.217264|    0.622396|    0.011506|
|         839|   -4.772556|   -7.216690|    0.622399|    0.011506|
|         840|   -4.785871|   -7.216092|    0.622401|    0.011505|
|         841|   -4.800191|   -7.215461|    0.622403|    0.011505|
|         842|   -4.814502|   -7.214800|    0.622405|    0.011505|
|         843|   -4.827768|   -7.214108|    0.622406|    0.011504|
|         844|   -4.839178|   -7.213388|    0.622408|    0.011504|
|         845|   -4.848376|   -7.212646|    0.622409|    0.011504|
|         846|   -4.855556|   -7.211883|    0.622411|    0.011503|
|         847|   -4.861368|   -7.211110|    0.622412|    0.011503|
|         848|   -4.866694|   -7.210327|    0.622412|    0.011503|
|         849|   -4.872388|   -7.209551|    0.622413|    0.011503|
|         850|   -4.879091|   -7.208774|    0.622413|    0.011502|
|         851|   -4.887138|   -7.208013|    0.622413|    0.011502|
|         852|   -4.896562|   -7.207276|    0.622413|    0.011502|
|         853|   -4.907139|   -7.206575|    0.622412|    0.011501|
|         854|   -4.918486|   -7.205924|    0.622412|    0.011501|
|         855|   -4.930159|   -7.205339|    0.622410|    0.011501|
|         856|   -4.941756|   -7.204843|    0.622409|    0.011501|
|         857|   -4.952993|   -7.204458|    0.622407|    0.011500|
|         858|   -4.963748|   -7.204220|    0.622405|    0.011500|
|         859|   -4.974052|   -7.204141|    0.622403|    0.011500|
|         860|   -4.984050|   -7.204239|    0.622400|    0.011500|
|         861|   -4.993942|   -7.204543|    0.622397|    0.011499|
|         862|   -5.003922|   -7.205081|    0.622394|    0.011499|
|         863|   -5.014140|   -7.205876|    0.622391|    0.011499|
|         864|   -5.024681|   -7.206951|    0.622387|    0.011499|
|         865|   -5.035565|   -7.208321|    0.622384|    0.011498|
|         866|   -5.046761|   -7.209999|    0.622380|    0.011498|
|         867|   -5.058210|   -7.211990|    0.622376|    0.011498|
|         868|   -5.069840|   -7.214294|    0.622372|    0.011498|
|         869|   -5.081592|   -7.216903|    0.622369|    0.011498|
|         870|   -5.093420|   -7.219798|    0.622365|    0.011498|
|         871|   -5.105302|   -7.222954|    0.622361|    0.011498|
|         872|   -5.117228|   -7.226338|    0.622358|    0.011498|
|         873|   -5.129203|   -7.229906|    0.622354|    0.011497|
|         874|   -5.141232|   -7.233608|    0.622351|    0.011497|
|         875|   -5.153317|   -7.237384|    0.622348|    0.011497|
|         876|   -5.165451|   -7.241172|    0.622346|    0.011498|
|         877|   -5.177614|   -7.244905|    0.622344|    0.011498|
|         878|   -5.189777|   -7.248516|    0.622342|    0.011498|
|         879|   -5.201897|   -7.251940|    0.622340|    0.011498|
|         880|   -5.213919|   -7.255117|    0.622339|    0.011498|
|         881|   -5.225783|   -7.257997|    0.622338|    0.011498|
|         882|   -5.237416|   -7.260538|    0.622338|    0.011498|
|         883|   -5.248744|   -7.262720|    0.622338|    0.011498|
|         884|   -5.259686|   -7.264529|    0.622338|    0.011499|
|         885|   -5.270162|   -7.265964|    0.622339|    0.011499|
|         886|   -5.280094|   -7.267040|    0.622340|    0.011499|
|         887|   -5.289411|   -7.267785|    0.622342|    0.011499|
|         888|   -5.298051|   -7.268236|    0.622344|    0.011500|
|         889|   -5.305971|   -7.268442|    0.622346|    0.011500|
|         890|   -5.313142|   -7.268455|    0.622349|    0.011500|
|         891|   -5.319559|   -7.268331|    0.622351|    0.011501|
|         892|   -5.325238|   -7.268124|    0.622355|    0.011501|
|         893|   -5.330216|   -7.267887|    0.622358|    0.011501|
|         894|   -5.334547|   -7.267665|    0.622361|    0.011502|
|         895|   -5.338303|   -7.267501|    0.622365|    0.011502|
|         896|   -5.341567|   -7.267426|    0.622369|    0.011502|
|         897|   -5.344429|   -7.267465|    0.622373|    0.011503|
|         898|   -5.346982|   -7.267635|    0.622378|    0.011503|
|         899|   -5.349317|   -7.267941|    0.622382|    0.011503|
|         900|   -5.351522|   -7.268382|    0.622387|    0.011504|
|         901|   -5.353676|   -7.268930|    0.622391|    0.011504|
|         902|   -5.355852|   -7.269588|    0.622396|    0.011504|
|         903|   -5.358110|   -7.270335|    0.622401|    0.011505|
|         904|   -5.360500|   -7.271138|    0.622406|    0.011505|
|         905|   -5.363062|   -7.271964|    0.622411|    0.011506|
|         906|   -5.365827|   -7.272771|    0.622416|    0.011506|
|         907|   -5.368815|   -7.273512|    0.622421|    0.011506|
|         908|   -5.372038|   -7.274147|    0.622426|    0.011507|
|         909|   -5.375501|   -7.274633|    0.622431|    0.011507|
|         910|   -5.379203|   -7.274933|    0.622436|    0.011507|
|         911|   -5.383139|   -7.275010|    0.622441|    0.011508|
|         912|   -5.387301|   -7.274832|    0.622446|    0.011508|
|         913|   -5.391677|   -7.274375|    0.622451|    0.011508|
|         914|   -5.396254|   -7.273620|    0.622456|    0.011509|
|         915|   -5.401019|   -7.272559|    0.622461|    0.011509|
|         916|   -5.405960|   -7.271189|    0.622465|    0.011510|
|         917|   -5.411065|   -7.269517|    0.622470|    0.011510|
|         918|   -5.416323|   -7.267556|    0.622475|    0.011510|
|         919|   -5.421724|   -7.265325|    0.622479|    0.011511|
|         920|   -5.427261|   -7.262850|    0.622484|    0.011511|
|         921|   -5.432926|   -7.260161|    0.622488|    0.011511|
|         922|   -5.438715|   -7.257294|    0.622492|    0.011511|
|         923|   -5.444623|   -7.254284|    0.622496|    0.011512|
|         924|   -5.450644|   -7.251164|    0.622500|    0.011512|
|         925|   -5.456775|   -7.247970|    0.622503|    0.011512|
|         926|   -5.463011|   -7.244738|    0.622507|    0.011513|
|         927|   -5.469344|   -7.241501|    0.622510|    0.011513|
|         928|   -5.475766|   -7.238291|    0.622513|    0.011513|
|         929|   -5.482267|   -7.235138|    0.622516|    0.011513|
|         930|   -5.488831|   -7.232069|    0.622518|    0.011514|
|         931|   -5.495442|   -7.229107|    0.622521|    0.011514|
|         932|   -5.502078|   -7.226273|    0.622523|    0.011514|
|         933|   -5.508713|   -7.223583|    0.622525|    0.011514|
|         934|   -5.515317|   -7.221051|    0.622526|    0.011514|
|         935|   -5.521855|   -7.218688|    0.622528|    0.011515|
|         936|   -5.528289|   -7.216500|    0.622529|    0.011515|
|         937|   -5.534579|   -7.214491|    0.622530|    0.011515|
|         938|   -5.540679|   -7.212662|    0.622531|    0.011515|
|         939|   -5.546544|   -7.211011|    0.622531|    0.011515|
|         940|   -5.552130|   -7.209531|    0.622532|    0.011515|
|         941|   -5.557392|   -7.208216|    0.622532|    0.011515|
|         942|   -5.562288|   -7.207055|    0.622532|    0.011515|
|         943|   -5.566783|   -7.206035|    0.622532|    0.011516|
|         944|   -5.570846|   -7.205143|    0.622532|    0.011516|
|         945|   -5.574454|   -7.204362|    0.622531|    0.011516|
|         946|   -5.577593|   -7.203675|    0.622531|    0.011516|
|         947|   -5.580258|   -7.203065|    0.622530|    0.011516|
|         948|   -5.582455|   -7.202512|    0.622530|    0.011516|
|         949|   -5.584200|   -7.201999|    0.622529|    0.011516|
|         950|   -5.585517|   -7.201509|    0.622528|    0.011516|
|         951|   -5.586438|   -7.201023|    0.622527|    0.011516|
|         952|   -5.587006|   -7.200526|    0.622527|    0.011516|
|         953|   -5.587267|   -7.200004|    0.622526|    0.011516|
|         954|   -5.587272|   -7.199443|    0.622525|    0.011516|
|         955|   -5.587076|   -7.198835|    0.622525|    0.011516|
[...]
|       10297|   -5.944851|   -8.123830|    0.622379|    0.011494|
|       10298|   -5.947321|   -8.125998|    0.622379|    0.011494|
|       10299|   -5.950140|   -8.127498|    0.622379|    0.011493|
|       10300|   -5.953300|   -8.128379|    0.622379|    0.011493|
|       10301|   -5.956789|   -8.128703|    0.622380|    0.011493|
|       10302|   -5.960593|   -8.128544|    0.622380|    0.011493|
|       10303|   -5.964692|   -8.127982|    0.622380|    0.011493|
|       10304|   -5.969066|   -8.127105|    0.622380|    0.011493|
|       10305|   -5.973691|   -8.125997|    0.622380|    0.011493|
|       10306|   -5.978540|   -8.124745|    0.622380|    0.011493|
|       10307|   -5.983585|   -8.123431|    0.622380|    0.011493|
|       10308|   -5.988796|   -8.122129|    0.622381|    0.011493|
|       10309|   -5.994142|   -8.120907|    0.622381|    0.011493|
|       10310|   -5.999591|   -8.119824|    0.622381|    0.011493|
|       10311|   -6.005113|   -8.118930|    0.622381|    0.011493|
|       10312|   -6.010675|   -8.118265|    0.622381|    0.011493|
|       10313|   -6.016248|   -8.117861|    0.622381|    0.011492|
|       10314|   -6.021803|   -8.117739|    0.622381|    0.011492|
|       10315|   -6.027313|   -8.117915|    0.622381|    0.011492|
|       10316|   -6.032753|   -8.118395|    0.622381|    0.011492|
|       10317|   -6.038101|   -8.119178|    0.622381|    0.011492|
|       10318|   -6.043336|   -8.120257|    0.622381|    0.011492|
|       10319|   -6.048442|   -8.121621|    0.622381|    0.011492|
|       10320|   -6.053405|   -8.123254|    0.622381|    0.011492|
|       10321|   -6.058214|   -8.125135|    0.622380|    0.011492|
|       10322|   -6.062860|   -8.127242|    0.622380|    0.011492|
|       10323|   -6.067338|   -8.129552|    0.622380|    0.011492|
|       10324|   -6.071644|   -8.132039|    0.622380|    0.011492|
|       10325|   -6.075779|   -8.134683|    0.622380|    0.011492|
|       10326|   -6.079743|   -8.137457|    0.622380|    0.011492|
|       10327|   -6.083542|   -8.140340|    0.622380|    0.011492|
|       10328|   -6.087182|   -8.143309|    0.622380|    0.011492|
|       10329|   -6.090671|   -8.146349|    0.622380|    0.011491|
|       10330|   -6.094019|   -8.149446|    0.622380|    0.011491|
|       10331|   -6.097238|   -8.152590|    0.622380|    0.011491|
|       10332|   -6.100342|   -8.155775|    0.622380|    0.011491|
|       10333|   -6.103346|   -8.158999|    0.622380|    0.011491|
|       10334|   -6.106265|   -8.162262|    0.622380|    0.011491|
|       10335|   -6.109118|   -8.165567|    0.622380|    0.011491|
|       10336|   -6.111921|   -8.168920|    0.622380|    0.011491|
|       10337|   -6.114693|   -8.172325|    0.622380|    0.011491|
|       10338|   -6.117452|   -8.175789|    0.622380|    0.011491|
|       10339|   -6.120217|   -8.179315|    0.622380|    0.011491|
|       10340|   -6.123005|   -8.182906|    0.622380|    0.011491|
|       10341|   -6.125832|   -8.186562|    0.622380|    0.011491|
|       10342|   -6.128712|   -8.190277|    0.622380|    0.011491|
|       10343|   -6.131660|   -8.194041|    0.622380|    0.011491|
|       10344|   -6.134684|   -8.197841|    0.622380|    0.011491|
|       10345|   -6.137793|   -8.201655|    0.622380|    0.011491|
|       10346|   -6.140992|   -8.205457|    0.622380|    0.011491|
|       10347|   -6.144280|   -8.209212|    0.622380|    0.011491|
|       10348|   -6.147655|   -8.212884|    0.622381|    0.011491|
|       10349|   -6.151111|   -8.216431|    0.622381|    0.011491|
|       10350|   -6.154638|   -8.219805|    0.622381|    0.011491|
|       10351|   -6.158222|   -8.222956|    0.622381|    0.011491|
|       10352|   -6.161846|   -8.225836|    0.622382|    0.011491|
|       10353|   -6.165488|   -8.228392|    0.622382|    0.011491|
|       10354|   -6.169126|   -8.230579|    0.622382|    0.011491|
|       10355|   -6.172733|   -8.232355|    0.622382|    0.011491|
|       10356|   -6.176284|   -8.233686|    0.622383|    0.011491|
|       10357|   -6.179750|   -8.234547|    0.622383|    0.011491|
|       10358|   -6.183104|   -8.234923|    0.622383|    0.011491|
|       10359|   -6.186322|   -8.234809|    0.622383|    0.011491|
|       10360|   -6.189379|   -8.234215|    0.622384|    0.011491|
|       10361|   -6.192256|   -8.233159|    0.622384|    0.011491|
|       10362|   -6.194937|   -8.231671|    0.622384|    0.011491|
|       10363|   -6.197411|   -8.229792|    0.622385|    0.011491|
|       10364|   -6.199671|   -8.227567|    0.622385|    0.011491|
|       10365|   -6.201717|   -8.225051|    0.622385|    0.011491|
|       10366|   -6.203555|   -8.222297|    0.622385|    0.011490|
|       10367|   -6.205195|   -8.219364|    0.622386|    0.011490|
|       10368|   -6.206652|   -8.216310|    0.622386|    0.011490|
|       10369|   -6.207947|   -8.213192|    0.622386|    0.011490|
|       10370|   -6.209104|   -8.210064|    0.622387|    0.011490|
|       10371|   -6.210148|   -8.206976|    0.622387|    0.011490|
|       10372|   -6.211105|   -8.203971|    0.622387|    0.011490|
|       10373|   -6.212005|   -8.201088|    0.622388|    0.011490|
|       10374|   -6.212874|   -8.198360|    0.622388|    0.011490|
|       10375|   -6.213740|   -8.195812|    0.622388|    0.011490|
|       10376|   -6.214628|   -8.193467|    0.622388|    0.011490|
|       10377|   -6.215561|   -8.191337|    0.622389|    0.011490|
|       10378|   -6.216558|   -8.189434|    0.622389|    0.011490|
|       10379|   -6.217637|   -8.187761|    0.622389|    0.011490|
|       10380|   -6.218812|   -8.186320|    0.622389|    0.011490|
|       10381|   -6.220094|   -8.185104|    0.622390|    0.011490|
|       10382|   -6.221491|   -8.184107|    0.622390|    0.011490|
|       10383|   -6.223009|   -8.183317|    0.622390|    0.011490|
|       10384|   -6.224652|   -8.182720|    0.622390|    0.011490|
|       10385|   -6.226419|   -8.182298|    0.622391|    0.011490|
|       10386|   -6.228309|   -8.182034|    0.622391|    0.011490|
|       10387|   -6.230320|   -8.181908|    0.622391|    0.011490|
|       10388|   -6.232447|   -8.181899|    0.622391|    0.011490|
|       10389|   -6.234686|   -8.181987|    0.622392|    0.011490|
|       10390|   -6.237031|   -8.182149|    0.622392|    0.011490|
|       10391|   -6.239476|   -8.182366|    0.622392|    0.011490|
|       10392|   -6.242015|   -8.182618|    0.622393|    0.011490|
|       10393|   -6.244644|   -8.182885|    0.622393|    0.011490|
|       10394|   -6.247356|   -8.183149|    0.622393|    0.011490|
|       10395|   -6.250146|   -8.183393|    0.622393|    0.011490|
|       10396|   -6.253011|   -8.183604|    0.622394|    0.011490|
|       10397|   -6.255947|   -8.183766|    0.622394|    0.011490|
|       10398|   -6.258950|   -8.183868|    0.622394|    0.011490|
|       10399|   -6.262016|   -8.183899|    0.622394|    0.011490|
|       10400|   -6.265141|   -8.183849|    0.622395|    0.011490|
|       10401|   -6.268320|   -8.183712|    0.622395|    0.011490|
|       10402|   -6.271549|   -8.183480|    0.622395|    0.011490|
|       10403|   -6.274821|   -8.183147|    0.622395|    0.011489|
|       10404|   -6.278129|   -8.182710|    0.622396|    0.011489|
|       10405|   -6.281465|   -8.182165|    0.622396|    0.011489|
|       10406|   -6.284818|   -8.181508|    0.622396|    0.011489|
|       10407|   -6.288177|   -8.180736|    0.622397|    0.011489|
|       10408|   -6.291528|   -8.179848|    0.622397|    0.011489|
|       10409|   -6.294858|   -8.178841|    0.622397|    0.011489|
|       10410|   -6.298151|   -8.177715|    0.622398|    0.011489|
|       10411|   -6.301392|   -8.176467|    0.622398|    0.011489|
|       10412|   -6.304562|   -8.175098|    0.622398|    0.011489|
|       10413|   -6.307646|   -8.173607|    0.622399|    0.011489|
|       10414|   -6.310628|   -8.171993|    0.622399|    0.011489|
|       10415|   -6.313492|   -8.170259|    0.622399|    0.011489|
|       10416|   -6.316225|   -8.168406|    0.622400|    0.011489|
|       10417|   -6.318814|   -8.166436|    0.622400|    0.011489|
|       10418|   -6.321250|   -8.164354|    0.622401|    0.011489|
|       10419|   -6.323526|   -8.162164|    0.622401|    0.011489|
|       10420|   -6.325637|   -8.159871|    0.622401|    0.011489|
|       10421|   -6.327583|   -8.157484|    0.622402|    0.011489|
|       10422|   -6.329366|   -8.155011|    0.622402|    0.011489|
|       10423|   -6.330990|   -8.152461|    0.622402|    0.011489|
|       10424|   -6.332464|   -8.149845|    0.622403|    0.011489|
|       10425|   -6.333797|   -8.147174|    0.622403|    0.011489|
|       10426|   -6.335003|   -8.144462|    0.622404|    0.011489|
|       10427|   -6.336095|   -8.141721|    0.622404|    0.011489|
|       10428|   -6.337090|   -8.138964|    0.622405|    0.011489|
|       10429|   -6.338003|   -8.136207|    0.622405|    0.011489|
|       10430|   -6.338852|   -8.133463|    0.622405|    0.011489|
|       10431|   -6.339654|   -8.130746|    0.622406|    0.011489|
|       10432|   -6.340424|   -8.128069|    0.622406|    0.011489|
|       10433|   -6.341177|   -8.125446|    0.622407|    0.011489|
|       10434|   -6.341929|   -8.122888|    0.622407|    0.011489|
|       10435|   -6.342691|   -8.120408|    0.622407|    0.011489|
|       10436|   -6.343476|   -8.118016|    0.622408|    0.011489|
|       10437|   -6.344293|   -8.115721|    0.622408|    0.011489|
|       10438|   -6.345149|   -8.113531|    0.622409|    0.011489|
|       10439|   -6.346052|   -8.111454|    0.622409|    0.011489|
|       10440|   -6.347006|   -8.109496|    0.622409|    0.011489|
|       10441|   -6.348014|   -8.107661|    0.622410|    0.011489|
|       10442|   -6.349079|   -8.105951|    0.622410|    0.011489|
|       10443|   -6.350202|   -8.104370|    0.622411|    0.011489|
|       10444|   -6.351381|   -8.102918|    0.622411|    0.011489|
|       10445|   -6.352615|   -8.101593|    0.622411|    0.011488|
|       10446|   -6.353903|   -8.100396|    0.622412|    0.011488|
|       10447|   -6.355241|   -8.099322|    0.622412|    0.011488|
|       10448|   -6.356625|   -8.098369|    0.622412|    0.011488|
|       10449|   -6.358053|   -8.097531|    0.622413|    0.011488|
|       10450|   -6.359518|   -8.096805|    0.622413|    0.011488|
|       10451|   -6.361017|   -8.096183|    0.622414|    0.011488|
|       10452|   -6.362543|   -8.095659|    0.622414|    0.011488|
|       10453|   -6.364091|   -8.095228|    0.622414|    0.011488|
|       10454|   -6.365656|   -8.094881|    0.622415|    0.011488|
|       10455|   -6.367232|   -8.094611|    0.622415|    0.011488|
|       10456|   -6.368810|   -8.094410|    0.622415|    0.011488|
|       10457|   -6.370387|   -8.094272|    0.622416|    0.011488|
|       10458|   -6.371954|   -8.094188|    0.622416|    0.011488|
|       10459|   -6.373505|   -8.094152|    0.622416|    0.011488|
|       10460|   -6.375033|   -8.094155|    0.622417|    0.011488|
|       10461|   -6.376532|   -8.094192|    0.622417|    0.011488|
|       10462|   -6.377996|   -8.094254|    0.622417|    0.011488|
|       10463|   -6.379418|   -8.094336|    0.622417|    0.011488|
|       10464|   -6.380793|   -8.094431|    0.622418|    0.011488|
|       10465|   -6.382117|   -8.094535|    0.622418|    0.011488|
|       10466|   -6.383384|   -8.094640|    0.622418|    0.011488|
|       10467|   -6.384593|   -8.094742|    0.622419|    0.011488|
|       10468|   -6.385739|   -8.094837|    0.622419|    0.011488|
|       10469|   -6.386823|   -8.094920|    0.622419|    0.011488|
|       10470|   -6.387843|   -8.094986|    0.622420|    0.011488|
|       10471|   -6.388802|   -8.095032|    0.622420|    0.011488|
|       10472|   -6.389701|   -8.095055|    0.622420|    0.011488|
|       10473|   -6.390543|   -8.095051|    0.622421|    0.011488|
|       10474|   -6.391332|   -8.095017|    0.622421|    0.011488|
|       10475|   -6.392075|   -8.094951|    0.622421|    0.011488|
|       10476|   -6.392776|   -8.094851|    0.622422|    0.011488|
|       10477|   -6.393444|   -8.094714|    0.622422|    0.011488|
|       10478|   -6.394084|   -8.094539|    0.622422|    0.011488|
|       10479|   -6.394705|   -8.094325|    0.622423|    0.011488|
|       10480|   -6.395316|   -8.094070|    0.622423|    0.011488|
|       10481|   -6.395922|   -8.093775|    0.622423|    0.011488|
|       10482|   -6.396533|   -8.093438|    0.622424|    0.011488|
|       10483|   -6.397156|   -8.093059|    0.622424|    0.011488|
|       10484|   -6.397797|   -8.092640|    0.622424|    0.011488|
|       10485|   -6.398463|   -8.092180|    0.622425|    0.011488|
|       10486|   -6.399158|   -8.091682|    0.622425|    0.011488|
|       10487|   -6.399888|   -8.091145|    0.622425|    0.011488|
|       10488|   -6.400656|   -8.090573|    0.622426|    0.011488|
|       10489|   -6.401466|   -8.089966|    0.622426|    0.011488|
|       10490|   -6.402319|   -8.089328|    0.622426|    0.011488|
|       10491|   -6.403215|   -8.088661|    0.622427|    0.011488|
|       10492|   -6.404156|   -8.087967|    0.622427|    0.011488|
|       10493|   -6.405140|   -8.087249|    0.622427|    0.011488|
|       10494|   -6.406166|   -8.086511|    0.622428|    0.011488|
|       10495|   -6.407231|   -8.085755|    0.622428|    0.011488|
|       10496|   -6.408334|   -8.084984|    0.622428|    0.011488|
|       10497|   -6.409470|   -8.084201|    0.622429|    0.011488|
|       10498|   -6.410637|   -8.083410|    0.622429|    0.011477|
+-----------------------------------------------------------------------+
|Fixed CL Mode (Finite Difference)       |Value                         |
+-----------------------------------------------------------------------+
|Delta CL / Delta AoA                    |0.297961                      |
|Delta CD / Delta CL                     |-0.00935338                   |
|Delta CMz / Delta CL                    |0.0261786                     |
+-----------------------------------------------------------------------+
Writing Flow Meta-Data file: flow.meta

----------------------------- Solver Exit -------------------------------

Maximum number of iterations reached (ITER = 10499) before convergence.
+-----------------------------------------------------------------------+
|      Convergence Field     |     Value    |   Criterion  |  Converged |
+-----------------------------------------------------------------------+
|                    rms[Rho]|      -6.41064|         < -12|          No|
+-----------------------------------------------------------------------+
-------------------------------------------------------------------------

--------------------------- Finalizing Solver ---------------------------
Deleted CNumerics container.
Deleted CIntegration container.
Deleted CSolver container.
Deleted CIteration container.
Deleted CInterface container.
Deleted CGeometry container.
Deleted CFreeFormDefBox class.
Deleted CSurfaceMovement class.
Deleted CVolumetricMovement class.
Deleted CConfig container.
Deleted nInst container.
Deleted COutput class.
-------------------------------------------------------------------------

------------------------- Exit Success (SU2_CFD) ------------------------


-------------------------------------------------------------------------
|    ___ _   _ ___                                                      |
|   / __| | | |_  )   Release 8.0.0 "Harrier"                           |
|   \__ \ |_| |/ /                                                      |
|   |___/\___//___|   Suite (Solution Exporting Code)                   |
|                                                                       |
-------------------------------------------------------------------------
| SU2 Project Website: https://su2code.github.io                        |
|                                                                       |
| The SU2 Project is maintained by the SU2 Foundation                   |
| (http://su2foundation.org)                                            |
-------------------------------------------------------------------------
| Copyright 2012-2023, SU2 Contributors                                 |
|                                                                       |
| SU2 is free software; you can redistribute it and/or                  |
| modify it under the terms of the GNU Lesser General Public            |
| License as published by the Free Software Foundation; either          |
| version 2.1 of the License, or (at your option) any later version.    |
|                                                                       |
| SU2 is distributed in the hope that it will be useful,                |
| but WITHOUT ANY WARRANTY; without even the implied warranty of        |
| MERCHANTABILITY or FITNESS FOR A PARTICULAR PURPOSE. See the GNU      |
| Lesser General Public License for more details.                       |
|                                                                       |
| You should have received a copy of the GNU Lesser General Public      |
| License along with SU2. If not, see <http://www.gnu.org/licenses/>.   |
-------------------------------------------------------------------------

----------------- Physical Case Definition ( Zone 0 ) -------------------
Input mesh file name: trax_125_deform.su2

-------------------- Output Information ( Zone 0 ) ----------------------
The tabular file format is CSV (.csv).
Flow variables file name: flow.

------------- Config File Boundary Information ( Zone 0 ) ---------------
+-----------------------------------------------------------------------+
|                        Marker Type|                        Marker Name|
+-----------------------------------------------------------------------+
|                          Far-field|                           FARFIELD|
+-----------------------------------------------------------------------+
|                     Heat flux wall|                            AIRFOIL|
+-----------------------------------------------------------------------+
Two dimensional problem.
13937 grid points before partitioning.
22842 volume elements before partitioning.
2 surface markers.
192 boundary elements in index 0 (Marker = AIRFOIL).
40 boundary elements in index 1 (Marker = FARFIELD).
Executing the partitioning functions.
Building the graph adjacency structure.
Calling ParMETIS... graph partitioning complete (1496 edge cuts).
Distributing ParMETIS coloring.
Rebalancing vertices.
Rebalancing volume element connectivity.
Rebalancing markers and surface elements.
15800 vertices including ghost points. 
24347 interior elements including halo cells. 
19221 triangles.
5126 quadrilaterals.
Establishing MPI communication patterns.
Identify vertices.
Storing a mapping from global to local point index.

------------------------- Solution Postprocessing -----------------------
Reading and storing the solution from restart_flow.
Volume output fields: COORDINATES, SOLUTION
  Info: Ignoring the following screen output fields:
  RMS_DENSITY, RMS_NU_TILDE, LIFT, DRAG
Screen output fields: INNER_ITER
  Info: Ignoring the following history output groups:
  RMS_RES, AERO_COEFF
History output group(s): ITER
Warning: No (valid) fields chosen for convergence monitoring. Convergence monitoring inactive.
Warning: No (valid) fields chosen for time convergence monitoring. Time convergence monitoring inactive.
|Paraview                           |flow.vtu                           |
|Paraview surface                   |surface_flow.vtu                   |
|CSV file                           |surface_flow.csv                   |

------------------------- Finalize Solver -------------------------
Deleted CGeometry container.
Deleted CSolver class.
Deleted CConfig container.
Deleted COutput class.

Completed in 0.170264 seconds on 16 cores.

------------------------- Exit Success (SU2_SOL) ------------------------

