
-------------------------------------------------------------------------
|    ___ _   _ ___                                                      |
|   / __| | | |_  )   Release 8.0.0 "Harrier"                           |
|   \__ \ |_| |/ /                                                      |
|   |___/\___//___|   Suite (Computational Fluid Dynamics Code)         |
|                                                                       |
-------------------------------------------------------------------------
| SU2 Project Website: https://su2code.github.io                        |
|                                                                       |
| The SU2 Project is maintained by the SU2 Foundation                   |
| (http://su2foundation.org)                                            |
-------------------------------------------------------------------------
| Copyright 2012-2023, SU2 Contributors                                 |
|                                                                       |
| SU2 is free software; you can redistribute it and/or                  |
| modify it under the terms of the GNU Lesser General Public            |
| License as published by the Free Software Foundation; either          |
| version 2.1 of the License, or (at your option) any later version.    |
|                                                                       |
| SU2 is distributed in the hope that it will be useful,                |
| but WITHOUT ANY WARRANTY; without even the implied warranty of        |
| MERCHANTABILITY or FITNESS FOR A PARTICULAR PURPOSE. See the GNU      |
| Lesser General Public License for more details.                       |
|                                                                       |
| You should have received a copy of the GNU Lesser General Public      |
| License along with SU2. If not, see <http://www.gnu.org/licenses/>.   |
-------------------------------------------------------------------------

Parsing config file for zone 0

----------------- Physical Case Definition ( Zone 0 ) -------------------
Compressible RANS equations.
Turbulence model: Spalart-Allmaras-noft2
Hybrid RANS/LES: No Hybrid RANS/LES
Mach number: 0.762.
Angle of attack (AoA): 0 deg, and angle of sideslip (AoS): 0 deg.
Reynolds number: 6.79424e+06. Reference length 1.
Fixed CL mode, target value: 0.622131.
No restart solution, use the values at infinity (freestream).
Dimensional simulation.
The reference area is 1 m^2.
The semi-span will be computed using the max y(3D) value.
The reference length is 1 m.
Reference origin for moment evaluation is (0.25, 0, 0).
Surface(s) where the force coefficients are evaluated: AIRFOIL.

Surface(s) plotted in the output file: AIRFOIL.
Surface(s) affected by the design variables: AIRFOIL.
Input mesh file name: trax_125.su2

--------------- Space Numerical Integration ( Zone 0 ) ------------------
Jameson-Schmidt-Turkel scheme (2nd order in space) for the flow inviscid terms.
JST viscous coefficients (2nd & 4th): 0.5, 0.02.
The method includes a grid stretching correction (p = 0.3).
Scalar upwind solver for the turbulence model.
First order integration in space.
Average of gradients with correction (viscous flow terms).
Average of gradients with correction (viscous turbulence terms).
Gradient for viscous and source terms: inverse-distance weighted Least-Squares.

--------------- Time Numerical Integration  ( Zone 0 ) ------------------
Local time stepping (steady state simulation).
Euler implicit method for the flow equations.
FGMRES is used for solving the linear system.
Using a ILU(0) preconditioning.
Convergence criteria of the linear solver: 1e-06.
Max number of linear iterations: 10.
No CFL adaptation.
Courant-Friedrichs-Lewy number:       10
Euler implicit time integration for the turbulence model.

------------------ Convergence Criteria  ( Zone 0 ) ---------------------
Maximum number of solver subiterations: 10499.
Begin convergence monitoring at iteration 10.
Residual minimum value: 1e-12.
Cauchy series min. value: 1e-06.
Number of Cauchy elements: 100.
Begin windowed time average at iteration 0.

-------------------- Output Information ( Zone 0 ) ----------------------
File writing frequency: 
+------------------------------------+
|                     File| Frequency|
+------------------------------------+
|                  RESTART|     10000|
|                 PARAVIEW|     10000|
|         SURFACE_PARAVIEW|     10000|
|              SURFACE_CSV|     10000|
+------------------------------------+
Writing the convergence history file every 1 inner iterations.
Writing the screen convergence history every 1 inner iterations.
The tabular file format is CSV (.csv).
Convergence history file name: history_direct.
Forces breakdown file name: forces_breakdown.dat.
Surface file name: surface_flow.
Volume file name: flow.
Restart file name: restart_flow.dat.

------------- Config File Boundary Information ( Zone 0 ) ---------------
+-----------------------------------------------------------------------+
|                        Marker Type|                        Marker Name|
+-----------------------------------------------------------------------+
|                          Far-field|                           FARFIELD|
+-----------------------------------------------------------------------+
|                     Heat flux wall|                            AIRFOIL|
+-----------------------------------------------------------------------+

-------------------- Output Preprocessing ( Zone 0 ) --------------------

WARNING: SURFACE_PRESSURE_DROP can only be computed for at least 2 surfaces (outlet, inlet, ...)

Screen output fields: INNER_ITER, RMS_DENSITY, RMS_NU_TILDE, LIFT, DRAG
History output group(s): ITER, RMS_RES, AERO_COEFF
Convergence field(s): RMS_DENSITY
Warning: No (valid) fields chosen for time convergence monitoring. Time convergence monitoring inactive.
Volume output fields: COORDINATES, SOLUTION, PRIMITIVE

------------------- Geometry Preprocessing ( Zone 0 ) -------------------
Two dimensional problem.
13937 grid points before partitioning.
22842 volume elements before partitioning.
2 surface markers.
192 boundary elements in index 0 (Marker = AIRFOIL).
40 boundary elements in index 1 (Marker = FARFIELD).
Executing the partitioning functions.
Building the graph adjacency structure.
Calling ParMETIS... graph partitioning complete (1496 edge cuts).
Distributing ParMETIS coloring.
Rebalancing vertices.
Rebalancing volume element connectivity.
Rebalancing markers and surface elements.
15800 vertices including ghost points. 
24347 interior elements including halo cells. 
19221 triangles.
5126 quadrilaterals.
Establishing MPI communication patterns.
Setting point connectivity.
Renumbering points (Reverse Cuthill McKee Ordering).
Recomputing point connectivity.
Setting element connectivity.
Checking the numerical grid orientation.
All volume elements are correctly orientend.
All surface elements are correctly orientend.
Identifying edges and vertices.
Setting the control volume structure.
Area of the computational grid: 32851.1.
Searching for the closest normal neighbors to the surfaces.
Storing a mapping from global to local point index.
Compute the surface curvature.
Max K: 158.363. Mean K: 7.11927. Standard deviation K: 21.0143.
Checking for periodicity.
Computing mesh quality statistics for the dual control volumes.
+--------------------------------------------------------------+
|           Mesh Quality Metric|        Minimum|        Maximum|
+--------------------------------------------------------------+
|    Orthogonality Angle (deg.)|         75.288|        89.9981|
|     CV Face Area Aspect Ratio|        1.00147|         3358.4|
|           CV Sub-Volume Ratio|        1.00061|        1211.69|
+--------------------------------------------------------------+
Finding max control volume width.
Communicating number of neighbors.
Wetted area = 2.02426 m.
Area projection in the x-plane = 0.123154 m, y-plane = 0.995873 m.
Max. coordinate in the x-direction = 1 m, y-direction = 0.0643507 m.
Min. coordinate in the x-direction = 0 m, y-direction = -0.0577875 m.
Computing wall distances.

-------------------- Solver Preprocessing ( Zone 0 ) --------------------
Viscous flow: Computing pressure using the ideal gas law
based on the free-stream temperature and a density computed
from the Reynolds number.
Force coefficients computed using free-stream values.

-- Models:
+------------------------------------------------------------------------------+
|          Viscosity Model|        Conductivity Model|              Fluid Model|
+------------------------------------------------------------------------------+
|               SUTHERLAND|          CONSTANT_PRANDTL|             STANDARD_AIR|
+------------------------------------------------------------------------------+
-- Fluid properties:
+------------------------------------------------------------------------------+
|                  Name|    Dim. value|    Ref. value|      Unit|Non-dim. value|
+------------------------------------------------------------------------------+
|        Ref. Viscosity|     1.716e-05|             1|   N.s/m^2|     1.716e-05|
|      Sutherland Temp.|        273.15|             1|         K|        273.15|
|     Sutherland Const.|         110.4|             1|         K|         110.4|
+------------------------------------------------------------------------------+
|        Prandtl (Lam.)|             -|             -|         -|          0.72|
|       Prandtl (Turb.)|             -|             -|         -|           0.9|
+------------------------------------------------------------------------------+
|          Gas Constant|       287.058|             1|  N.m/kg.K|       287.058|
|      Spec. Heat Ratio|             -|             -|         -|           1.4|
+------------------------------------------------------------------------------+
-- Initial and free-stream conditions:
+------------------------------------------------------------------------------+
|                  Name|    Dim. value|    Ref. value|      Unit|Non-dim. value|
+------------------------------------------------------------------------------+
|       Static Pressure|       38779.2|             1|        Pa|       38779.2|
|               Density|      0.468824|             1|    kg/m^3|      0.468824|
|           Temperature|        288.15|             1|         K|        288.15|
|          Total Energy|        240409|             1|   m^2/s^2|        240409|
|            Velocity-X|       259.306|             1|       m/s|       259.306|
|            Velocity-Y|             0|             1|       m/s|             0|
|    Velocity Magnitude|       259.306|             1|       m/s|       259.306|
+------------------------------------------------------------------------------+
|             Viscosity|    1.7893e-05|             1|   N.s/m^2|    1.7893e-05|
|          Conductivity|             -|             1|   W/m^2.K|             -|
|     Turb. Kin. Energy|       252.149|             1|   m^2/s^2|       252.149|
|     Spec. Dissipation|        660671|             1|       1/s|        660671|
+------------------------------------------------------------------------------+
|           Mach Number|             -|             -|         -|         0.762|
|       Reynolds Number|             -|             -|         -|   6.79424e+06|
+------------------------------------------------------------------------------+
Initialize Jacobian structure (Navier-Stokes). MG level: 0.
Initialize Jacobian structure (SA model).

------------------- Numerics Preprocessing ( Zone 0 ) -------------------

----------------- Integration Preprocessing ( Zone 0 ) ------------------

------------------- Iteration Preprocessing ( Zone 0 ) ------------------
Euler/Navier-Stokes/RANS fluid iteration.

------------------------------ Begin Solver -----------------------------

Simulation Run using the Single-zone Driver
WARNING: SU2 was not compiled for an AVX-capable architecture. Performance could be better,
         see https://su2code.github.io/docs_v7/Build-SU2-Linux-MacOS/#compiler-optimizations
+----------------------------------------------------------------+
|  Inner_Iter|    rms[Rho]|     rms[nu]|          CL|          CD|
+----------------------------------------------------------------+
|           0|   -1.695861|   -4.947618|   -0.016901|    0.177874|
|           1|   -2.090984|   -5.431589|   -0.014143|    0.220869|
|           2|   -2.146266|   -5.588030|   -0.010993|    0.234296|
|           3|   -2.218061|   -5.675135|   -0.009793|    0.237636|
|           4|   -2.291435|   -5.784479|   -0.009749|    0.234026|
|           5|   -2.301018|   -5.817043|   -0.010026|    0.224822|
|           6|   -2.284046|   -5.831261|   -0.010330|    0.215177|
|           7|   -2.266698|   -5.834457|   -0.010636|    0.206498|
|           8|   -2.253264|   -5.834712|   -0.010898|    0.198534|
|           9|   -2.243042|   -5.833239|   -0.010983|    0.190710|
|          10|   -2.234596|   -5.830598|   -0.010769|    0.182707|
|          11|   -2.226737|   -5.826532|   -0.010185|    0.174505|
|          12|   -2.218864|   -5.819642|   -0.009194|    0.166259|
|          13|   -2.210716|   -5.810514|   -0.007787|    0.158170|
|          14|   -2.202103|   -5.799233|   -0.005992|    0.150425|
|          15|   -2.192826|   -5.785737|   -0.003856|    0.143172|
|          16|   -2.182717|   -5.770275|   -0.001451|    0.136524|
|          17|   -2.171743|   -5.753149|    0.001142|    0.130559|
|          18|   -2.160006|   -5.735101|    0.003841|    0.125325|
|          19|   -2.147748|   -5.716851|    0.006564|    0.120838|
|          20|   -2.135360|   -5.699074|    0.009238|    0.117082|
|          21|   -2.123192|   -5.682199|    0.011801|    0.114013|
|          22|   -2.111553|   -5.666411|    0.014207|    0.111574|
|          23|   -2.100528|   -5.651688|    0.016431|    0.109695|
|          24|   -2.090134|   -5.637730|    0.018465|    0.108308|
|          25|   -2.080218|   -5.624238|    0.020323|    0.107347|
|          26|   -2.070510|   -5.611175|    0.022028|    0.106755|
|          27|   -2.060799|   -5.598503|    0.023615|    0.106480|
|          28|   -2.051064|   -5.586161|    0.025120|    0.106479|
|          29|   -2.041398|   -5.574076|    0.026577|    0.106715|
|          30|   -2.031906|   -5.562108|    0.028016|    0.107155|
|          31|   -2.022653|   -5.550066|    0.029459|    0.107766|
|          32|   -2.013667|   -5.538094|    0.030928|    0.108510|
|          33|   -2.004962|   -5.526421|    0.032445|    0.109347|
|          34|   -1.996567|   -5.515180|    0.034041|    0.110225|
|          35|   -1.988530|   -5.504361|    0.035756|    0.111088|
|          36|   -1.980912|   -5.494103|    0.037639|    0.111876|
|          37|   -1.973772|   -5.484465|    0.039745|    0.112526|
|          38|   -1.967158|   -5.475496|    0.042133|    0.112978|
|          39|   -1.961102|   -5.467239|    0.044861|    0.113180|
|          40|   -1.955632|   -5.459599|    0.047977|    0.113092|
|          41|   -1.950750|   -5.452443|    0.051513|    0.112690|
|          42|   -1.946415|   -5.445662|    0.055475|    0.111966|
|          43|   -1.942543|   -5.439266|    0.059850|    0.110927|
|          44|   -1.939050|   -5.433144|    0.064600|    0.109598|
|          45|   -1.935859|   -5.427284|    0.069664|    0.108013|
|          46|   -1.932921|   -5.421573|    0.074966|    0.106213|
|          47|   -1.930202|   -5.415905|    0.080421|    0.104246|
|          48|   -1.927679|   -5.410150|    0.085942|    0.102159|
|          49|   -1.925319|   -5.404349|    0.091444|    0.099998|
|          50|   -1.923098|   -5.398587|    0.096848|    0.097803|
|          51|   -1.921009|   -5.392974|    0.102084|    0.095611|
|          52|   -1.919061|   -5.387679|    0.107095|    0.093451|
|          53|   -1.917269|   -5.382854|    0.111834|    0.091347|
|          54|   -1.915664|   -5.378522|    0.116269|    0.089316|
|          55|   -1.914275|   -5.374843|    0.120378|    0.087370|
|          56|   -1.913133|   -5.371994|    0.124149|    0.085516|
|          57|   -1.912252|   -5.370107|    0.127578|    0.083757|
|          58|   -1.911631|   -5.369139|    0.130671|    0.082092|
|          59|   -1.911252|   -5.369181|    0.133442|    0.080517|
|          60|   -1.911090|   -5.370220|    0.135916|    0.079028|
|          61|   -1.911104|   -5.372264|    0.138122|    0.077618|
|          62|   -1.911255|   -5.375134|    0.140095|    0.076279|
|          63|   -1.911500|   -5.378761|    0.141876|    0.075003|
|          64|   -1.911805|   -5.383082|    0.143513|    0.073780|
|          65|   -1.912137|   -5.387910|    0.145057|    0.072602|
|          66|   -1.912468|   -5.393015|    0.146558|    0.071459|
|          67|   -1.912768|   -5.398302|    0.148064|    0.070340|
|          68|   -1.913010|   -5.403646|    0.149625|    0.069236|
|          69|   -1.913171|   -5.408898|    0.151282|    0.068138|
|          70|   -1.913233|   -5.414039|    0.153074|    0.067038|
|          71|   -1.913189|   -5.418832|    0.155030|    0.065927|
|          72|   -1.913032|   -5.423312|    0.157173|    0.064799|
|          73|   -1.912763|   -5.427341|    0.159519|    0.063648|
|          74|   -1.912388|   -5.430780|    0.162072|    0.062469|
|          75|   -1.911915|   -5.433580|    0.164822|    0.061261|
|          76|   -1.911344|   -5.435551|    0.167758|    0.060021|
|          77|   -1.910684|   -5.436732|    0.170864|    0.058752|
|          78|   -1.909931|   -5.437055|    0.174115|    0.057454|
|          79|   -1.909079|   -5.436574|    0.177482|    0.056131|
|          80|   -1.908126|   -5.435190|    0.180927|    0.054786|
|          81|   -1.907081|   -5.433061|    0.184406|    0.053429|
|          82|   -1.905949|   -5.430272|    0.187883|    0.052068|
|          83|   -1.904749|   -5.427017|    0.191326|    0.050712|
|          84|   -1.903498|   -5.423298|    0.194707|    0.049368|
|          85|   -1.902230|   -5.419077|    0.197992|    0.048043|
|          86|   -1.900956|   -5.414501|    0.201162|    0.046743|
|          87|   -1.899687|   -5.409580|    0.204212|    0.045479|
|          88|   -1.898438|   -5.404315|    0.207125|    0.044261|
|          89|   -1.897221|   -5.398654|    0.209882|    0.043095|
|          90|   -1.896027|   -5.392898|    0.212461|    0.041985|
|          91|   -1.894853|   -5.386872|    0.214869|    0.040932|
|          92|   -1.893676|   -5.380763|    0.217147|    0.039933|
|          93|   -1.892480|   -5.374455|    0.219365|    0.038986|
|          94|   -1.891244|   -5.367976|    0.221455|    0.038099|
|          95|   -1.889934|   -5.361403|    0.223346|    0.037282|
|          96|   -1.888530|   -5.354760|    0.225062|    0.036527|
|          97|   -1.887006|   -5.348089|    0.226630|    0.035827|
|          98|   -1.885349|   -5.341566|    0.228193|    0.035158|
|          99|   -1.883531|   -5.335363|    0.229782|    0.034509|
|         100|   -1.881544|   -5.329374|    0.231379|    0.033887|
|         101|   -1.879392|   -5.323538|    0.232999|    0.033284|
|         102|   -1.877069|   -5.317754|    0.234529|    0.032708|
|         103|   -1.874598|   -5.312417|    0.235904|    0.032165|
|         104|   -1.872003|   -5.307335|    0.237175|    0.031641|
|         105|   -1.869290|   -5.303032|    0.238566|    0.031093|
|         106|   -1.866480|   -5.299052|    0.240018|    0.030536|
|         107|   -1.863602|   -5.294867|    0.241586|    0.029970|
|         108|   -1.860676|   -5.292034|    0.243317|    0.029387|
|         109|   -1.857690|   -5.289204|    0.245211|    0.028778|
|         110|   -1.854662|   -5.286924|    0.247106|    0.028166|
|         111|   -1.851606|   -5.284396|    0.248805|    0.027563|
|         112|   -1.848555|   -5.282934|    0.250490|    0.026953|
|         113|   -1.845560|   -5.282305|    0.252387|    0.026305|
|         114|   -1.842628|   -5.281567|    0.254482|    0.025629|
|         115|   -1.839787|   -5.281800|    0.256753|    0.024945|
|         116|   -1.837045|   -5.281118|    0.259148|    0.024255|
|         117|   -1.834391|   -5.281254|    0.261656|    0.023561|
|         118|   -1.831762|   -5.280767|    0.264329|    0.022834|
|         119|   -1.829150|   -5.279314|    0.266924|    0.022110|
|         120|   -1.826560|   -5.278474|    0.269310|    0.021410|
|         121|   -1.824003|   -5.278694|    0.271788|    0.020696|
|         122|   -1.821502|   -5.278631|    0.274484|    0.019957|
|         123|   -1.819049|   -5.278379|    0.277362|    0.019221|
|         124|   -1.816646|   -5.279556|    0.280331|    0.018493|
|         125|   -1.814280|   -5.281334|    0.283336|    0.017775|
|         126|   -1.811934|   -5.281609|    0.286275|    0.017055|
|         127|   -1.809566|   -5.280029|    0.289290|    0.016322|
|         128|   -1.807172|   -5.277967|    0.292242|    0.015595|
|         129|   -1.804742|   -5.275406|    0.294877|    0.014899|
|         130|   -1.802289|   -5.271772|    0.297378|    0.014219|
|         131|   -1.799826|   -5.267785|    0.300053|    0.013520|
|         132|   -1.797345|   -5.265124|    0.302824|    0.012829|
|         133|   -1.794850|   -5.263275|    0.305608|    0.012153|
|         134|   -1.792344|   -5.261951|    0.308343|    0.011496|
|         135|   -1.789819|   -5.260268|    0.310909|    0.010843|
|         136|   -1.787267|   -5.254461|    0.313325|    0.010199|
|         137|   -1.784694|   -5.248613|    0.315746|    0.009552|
|         138|   -1.782104|   -5.243877|    0.318010|    0.008927|
|         139|   -1.779505|   -5.239733|    0.319941|    0.008341|
|         140|   -1.776918|   -5.236035|    0.321750|    0.007766|
|         141|   -1.774350|   -5.231898|    0.323658|    0.007186|
|         142|   -1.771814|   -5.228240|    0.325603|    0.006621|
|         143|   -1.769315|   -5.225176|    0.327539|    0.006080|
|         144|   -1.766868|   -5.222432|    0.329416|    0.005563|
|         145|   -1.764469|   -5.218166|    0.331104|    0.005052|
|         146|   -1.762123|   -5.212234|    0.332676|    0.004557|
|         147|   -1.759846|   -5.203905|    0.334293|    0.004066|
|         148|   -1.757646|   -5.197000|    0.335814|    0.003600|
|         149|   -1.755527|   -5.194014|    0.337123|    0.003174|
|         150|   -1.753495|   -5.192866|    0.338252|    0.002779|
|         151|   -1.751558|   -5.191045|    0.339474|    0.002382|
|         152|   -1.749717|   -5.189528|    0.340757|    0.001994|
|         153|   -1.747972|   -5.187381|    0.342101|    0.001629|
|         154|   -1.746321|   -5.185032|    0.343483|    0.001293|
|         155|   -1.744762|   -5.182546|    0.344835|    0.000978|
|         156|   -1.743292|   -5.179946|    0.346054|    0.000672|
|         157|   -1.741910|   -5.177176|    0.347247|    0.000378|
|         158|   -1.740620|   -5.174490|    0.348473|    0.000096|
|         159|   -1.739424|   -5.172068|    0.349651|   -0.000163|
|         160|   -1.738325|   -5.169907|    0.350702|   -0.000390|
|         161|   -1.737320|   -5.167972|    0.351670|   -0.000588|
|         162|   -1.736413|   -5.167992|    0.352608|   -0.000778|
|         163|   -1.735609|   -5.168818|    0.353605|   -0.000960|
|         164|   -1.734913|   -5.171144|    0.354633|   -0.001129|
|         165|   -1.734332|   -5.173898|    0.355719|   -0.001275|
|         166|   -1.733881|   -5.176740|    0.356823|   -0.001399|
|         167|   -1.733573|   -5.179974|    0.357850|   -0.001513|
|         168|   -1.733424|   -5.183405|    0.358776|   -0.001621|
|         169|   -1.733456|   -5.186765|    0.359706|   -0.001724|
|         170|   -1.733690|   -5.190040|    0.360612|   -0.001816|
|         171|   -1.734152|   -5.192469|    0.361472|   -0.001893|
|         172|   -1.734861|   -5.193225|    0.362244|   -0.001953|
|         173|   -1.735839|   -5.193645|    0.362953|   -0.001999|
|         174|   -1.737109|   -5.196195|    0.363580|   -0.002039|
|         175|   -1.738692|   -5.198838|    0.364232|   -0.002076|
|         176|   -1.740609|   -5.201616|    0.364906|   -0.002108|
|         177|   -1.742879|   -5.205661|    0.365648|   -0.002129|
|         178|   -1.745518|   -5.208843|    0.366433|   -0.002139|
|         179|   -1.748546|   -5.210986|    0.367192|   -0.002145|
|         180|   -1.751972|   -5.212115|    0.367876|   -0.002153|
|         181|   -1.755805|   -5.212238|    0.368579|   -0.002162|
|         182|   -1.760050|   -5.210202|    0.369293|   -0.002167|
|         183|   -1.764705|   -5.205575|    0.370010|   -0.002165|
|         184|   -1.769761|   -5.197985|    0.370724|   -0.002154|
|         185|   -1.775201|   -5.188966|    0.371418|   -0.002132|
|         186|   -1.781001|   -5.181562|    0.372112|   -0.002100|
|         187|   -1.787131|   -5.174543|    0.372781|   -0.002064|
|         188|   -1.793549|   -5.166444|    0.373473|   -0.002021|
|         189|   -1.800208|   -5.160117|    0.374224|   -0.001971|
|         190|   -1.807051|   -5.155034|    0.375055|   -0.001905|
|         191|   -1.814017|   -5.149224|    0.375942|   -0.001826|
|         192|   -1.821039|   -5.143141|    0.376855|   -0.001738|
|         193|   -1.828041|   -5.137349|    0.377714|   -0.001649|
|         194|   -1.834945|   -5.131505|    0.378552|   -0.001549|
|         195|   -1.841675|   -5.124583|    0.379377|   -0.001436|
|         196|   -1.848154|   -5.117019|    0.380171|   -0.001306|
|         197|   -1.854306|   -5.109297|    0.380917|   -0.001159|
|         198|   -1.860065|   -5.103046|    0.381617|   -0.000993|
|         199|   -1.865375|   -5.098741|    0.382271|   -0.000810|
|         200|   -1.870194|   -5.095230|    0.382851|   -0.000614|
|         201|   -1.874496|   -5.093702|    0.383294|    0.007603|
+-----------------------------------------------------------------------+
|Fixed CL Mode                           |Value                         |
+-----------------------------------------------------------------------+
|Current CL                              |0.383294                      |
|Target CL                               |0.622131                      |
|Previous AOA                            |0                             |
|Changed AoA by                          |1.1964                        |
+-----------------------------------------------------------------------+
+----------------------------------------------------------------+
|  Inner_Iter|    rms[Rho]|     rms[nu]|          CL|          CD|
+----------------------------------------------------------------+
|         202|   -0.094225|   -4.193701|    0.383762|    0.007839|
|         203|   -0.479402|   -4.344324|    0.384211|    0.008091|
|         204|   -0.722196|   -4.416221|    0.384635|    0.008363|
|         205|   -0.800845|   -4.465323|    0.385008|    0.008651|
|         206|   -0.853917|   -4.509302|    0.385266|    0.008944|
|         207|   -0.921210|   -4.553813|    0.385394|    0.009242|
|         208|   -1.003738|   -4.600948|    0.385412|    0.009547|
|         209|   -1.090326|   -4.645878|    0.385331|    0.009862|
|         210|   -1.166458|   -4.686052|    0.385157|    0.010186|
|         211|   -1.224197|   -4.720717|    0.384900|    0.010518|
|         212|   -1.263690|   -4.748015|    0.384565|    0.010856|
|         213|   -1.287213|   -4.768428|    0.384129|    0.011195|
|         214|   -1.297758|   -4.783961|    0.383615|    0.011535|
|         215|   -1.300967|   -4.795747|    0.383042|    0.011878|
|         216|   -1.303770|   -4.804529|    0.382440|    0.012225|
|         217|   -1.311163|   -4.810489|    0.381838|    0.012577|
|         218|   -1.324749|   -4.813599|    0.381225|    0.012931|
|         219|   -1.343189|   -4.815746|    0.380571|    0.013284|
|         220|   -1.363592|   -4.817631|    0.379841|    0.013628|
|         221|   -1.383249|   -4.820502|    0.379084|    0.013966|
|         222|   -1.400993|   -4.825401|    0.378327|    0.014299|
|         223|   -1.417350|   -4.831525|    0.377586|    0.014630|
|         224|   -1.433586|   -4.838729|    0.376874|    0.014957|
|         225|   -1.450617|   -4.845550|    0.376198|    0.015282|
|         226|   -1.468517|   -4.852007|    0.375537|    0.015600|
|         227|   -1.486672|   -4.856401|    0.374926|    0.015915|
|         228|   -1.504195|   -4.859533|    0.374387|    0.016228|
|         229|   -1.520249|   -4.860008|    0.373937|    0.016541|
|         230|   -1.534173|   -4.858124|    0.373609|    0.016856|
|         231|   -1.545546|   -4.855904|    0.373398|    0.017172|
|         232|   -1.554291|   -4.853566|    0.373302|    0.017489|
|         233|   -1.560803|   -4.850809|    0.373296|    0.017802|
|         234|   -1.565951|   -4.848328|    0.373394|    0.018111|
|         235|   -1.570890|   -4.846264|    0.373625|    0.018419|
|         236|   -1.576763|   -4.845606|    0.374008|    0.018726|
|         237|   -1.584445|   -4.844458|    0.374557|    0.019035|
|         238|   -1.594400|   -4.843311|    0.375285|    0.019346|
|         239|   -1.606624|   -4.843837|    0.376189|    0.019657|
|         240|   -1.620691|   -4.844507|    0.377279|    0.019968|
|         241|   -1.635815|   -4.845326|    0.378582|    0.020281|
|         242|   -1.650964|   -4.845549|    0.380111|    0.020597|
|         243|   -1.665074|   -4.844903|    0.381879|    0.020916|
|         244|   -1.677296|   -4.844245|    0.383909|    0.021240|
|         245|   -1.687237|   -4.843269|    0.386205|    0.021567|
|         246|   -1.695064|   -4.842140|    0.388772|    0.021896|
|         247|   -1.701428|   -4.840961|    0.391624|    0.022229|
|         248|   -1.707240|   -4.839269|    0.394758|    0.022562|
|         249|   -1.713400|   -4.837989|    0.398203|    0.022897|
|         250|   -1.720601|   -4.835797|    0.401978|    0.023234|
|         251|   -1.729225|   -4.833319|    0.406099|    0.023574|
|         252|   -1.739327|   -4.831308|    0.410582|    0.023918|
|         253|   -1.750690|   -4.829463|    0.415435|    0.024264|
|         254|   -1.762912|   -4.828115|    0.420661|    0.024613|
|         255|   -1.775503|   -4.827183|    0.426269|    0.024965|
|         256|   -1.788006|   -4.826509|    0.432267|    0.025320|
|         257|   -1.800091|   -4.825517|    0.438650|    0.025677|
|         258|   -1.811602|   -4.824172|    0.445404|    0.026037|
|         259|   -1.822561|   -4.823153|    0.452518|    0.026398|
|         260|   -1.833123|   -4.822201|    0.459966|    0.026759|
|         261|   -1.843509|   -4.820711|    0.467716|    0.027119|
|         262|   -1.853943|   -4.818876|    0.475734|    0.027476|
|         263|   -1.864598|   -4.816669|    0.483980|    0.027829|
|         264|   -1.875572|   -4.814672|    0.492410|    0.028176|
|         265|   -1.886884|   -4.812389|    0.500972|    0.028516|
|         266|   -1.898490|   -4.809967|    0.509620|    0.028847|
|         267|   -1.910302|   -4.807222|    0.518300|    0.029168|
|         268|   -1.922216|   -4.804379|    0.526953|    0.029478|
|         269|   -1.934130|   -4.801534|    0.535518|    0.029774|
|         270|   -1.945969|   -4.798465|    0.543934|    0.030055|
|         271|   -1.957678|   -4.795324|    0.552143|    0.030320|
|         272|   -1.969231|   -4.792120|    0.560089|    0.030569|
|         273|   -1.980622|   -4.788856|    0.567721|    0.030801|
|         274|   -1.991860|   -4.785795|    0.574986|    0.031015|
|         275|   -2.002964|   -4.782575|    0.581832|    0.031211|
|         276|   -2.013948|   -4.779173|    0.588216|    0.031388|
|         277|   -2.024821|   -4.775605|    0.594102|    0.031547|
|         278|   -2.035579|   -4.771894|    0.599457|    0.031688|
|         279|   -2.046211|   -4.767934|    0.604258|    0.031810|
|         280|   -2.056690|   -4.763670|    0.608487|    0.031916|
|         281|   -2.066976|   -4.759203|    0.612133|    0.032007|
|         282|   -2.077019|   -4.754361|    0.615195|    0.032082|
|         283|   -2.086759|   -4.749332|    0.617675|    0.032145|
|         284|   -2.096130|   -4.744164|    0.619584|    0.032196|
|         285|   -2.105058|   -4.738691|    0.620937|    0.032236|
|         286|   -2.113476|   -4.733034|    0.621753|    0.032268|
|         287|   -2.121319|   -4.727310|    0.622058|    0.032293|
|         288|   -2.128538|   -4.721650|    0.621878|    0.032312|
|         289|   -2.135098|   -4.716046|    0.621243|    0.032326|
|         290|   -2.140985|   -4.710554|    0.620186|    0.032337|
|         291|   -2.146207|   -4.705199|    0.618739|    0.032346|
|         292|   -2.150796|   -4.700037|    0.616937|    0.032354|
|         293|   -2.154805|   -4.695104|    0.614814|    0.032362|
|         294|   -2.158303|   -4.690366|    0.612404|    0.032369|
|         295|   -2.161376|   -4.685856|    0.609737|    0.032378|
|         296|   -2.164118|   -4.681568|    0.606844|    0.032387|
|         297|   -2.166628|   -4.677592|    0.603754|    0.032397|
|         298|   -2.169002|   -4.673852|    0.600492|    0.032407|
|         299|   -2.171333|   -4.670400|    0.597084|    0.032419|
|         300|   -2.173705|   -4.667237|    0.593551|    0.032431|
|         301|   -2.176194|   -4.664322|    0.589915|    0.032443|
|         302|   -2.178862|   -4.661625|    0.586193|    0.032455|
|         303|   -2.181760|   -4.659045|    0.582401|    0.032467|
|         304|   -2.184926|   -4.656666|    0.578554|    0.032477|
|         305|   -2.188388|   -4.654387|    0.574665|    0.032486|
|         306|   -2.192161|   -4.652224|    0.570749|    0.032492|
|         307|   -2.196253|   -4.650187|    0.566815|    0.032496|
|         308|   -2.200661|   -4.648199|    0.562875|    0.032496|
|         309|   -2.205380|   -4.646266|    0.558940|    0.032494|
|         310|   -2.210396|   -4.644359|    0.555019|    0.032487|
|         311|   -2.215693|   -4.642447|    0.551121|    0.032476|
|         312|   -2.221255|   -4.640463|    0.547257|    0.032462|
|         313|   -2.227063|   -4.638408|    0.543437|    0.032443|
|         314|   -2.233099|   -4.636178|    0.539671|    0.032420|
|         315|   -2.239349|   -4.633816|    0.535972|    0.032393|
|         316|   -2.245799|   -4.631296|    0.532349|    0.032362|
|         317|   -2.252437|   -4.628625|    0.528818|    0.032329|
|         318|   -2.259256|   -4.625729|    0.525389|    0.032292|
|         319|   -2.266252|   -4.622618|    0.522077|    0.032253|
|         320|   -2.273420|   -4.619319|    0.518895|    0.032213|
|         321|   -2.280762|   -4.615697|    0.515857|    0.032172|
|         322|   -2.288275|   -4.611788|    0.512979|    0.032130|
|         323|   -2.295966|   -4.607609|    0.510275|    0.032089|
|         324|   -2.303838|   -4.603135|    0.507761|    0.032049|
|         325|   -2.311892|   -4.598338|    0.505450|    0.032011|
|         326|   -2.320132|   -4.593242|    0.503359|    0.031974|
|         327|   -2.328557|   -4.587846|    0.501499|    0.031940|
|         328|   -2.337165|   -4.582156|    0.499886|    0.031909|
|         329|   -2.345953|   -4.576124|    0.498533|    0.031881|
|         330|   -2.354910|   -4.569959|    0.497449|    0.031855|
|         331|   -2.364023|   -4.563445|    0.496648|    0.031832|
|         332|   -2.373273|   -4.556693|    0.496138|    0.031812|
|         333|   -2.382638|   -4.549545|    0.495926|    0.031795|
|         334|   -2.392088|   -4.542273|    0.496019|    0.031778|
|         335|   -2.401589|   -4.534825|    0.496420|    0.031763|
|         336|   -2.411099|   -4.527193|    0.497134|    0.031748|
|         337|   -2.420572|   -4.519457|    0.498159|    0.031733|
|         338|   -2.429961|   -4.511663|    0.499494|    0.031715|
|         339|   -2.439207|   -4.503736|    0.501136|    0.031695|
|         340|   -2.448253|   -4.495708|    0.503078|    0.031671|
|         341|   -2.457042|   -4.487667|    0.505312|    0.031642|
|         342|   -2.465514|   -4.479615|    0.507828|    0.031607|
|         343|   -2.473610|   -4.471477|    0.510612|    0.031565|
|         344|   -2.481273|   -4.463139|    0.513650|    0.031514|
|         345|   -2.488455|   -4.454694|    0.516925|    0.031453|
|         346|   -2.495114|   -4.446244|    0.520420|    0.031381|
|         347|   -2.501214|   -4.437942|    0.524114|    0.031298|
|         348|   -2.506733|   -4.429770|    0.527986|    0.031201|
|         349|   -2.511663|   -4.421607|    0.532013|    0.031090|
|         350|   -2.515999|   -4.413447|    0.536172|    0.030965|
|         351|   -2.519759|   -4.405323|    0.540438|    0.030824|
|         352|   -2.522964|   -4.397347|    0.544785|    0.030667|
|         353|   -2.525650|   -4.389597|    0.549189|    0.030494|
|         354|   -2.527864|   -4.382033|    0.553623|    0.030304|
|         355|   -2.529664|   -4.374608|    0.558063|    0.030097|
|         356|   -2.531125|   -4.367237|    0.562485|    0.029873|
|         357|   -2.532303|   -4.359864|    0.566863|    0.029631|
|         358|   -2.533273|   -4.352587|    0.571175|    0.029372|
|         359|   -2.534122|   -4.345423|    0.575399|    0.029095|
|         360|   -2.534930|   -4.338418|    0.579512|    0.028802|
|         361|   -2.535763|   -4.331557|    0.583495|    0.028492|
|         362|   -2.536695|   -4.324958|    0.587331|    0.028165|
|         363|   -2.537801|   -4.318626|    0.591004|    0.027823|
|         364|   -2.539156|   -4.313213|    0.594498|    0.027464|
|         365|   -2.540825|   -4.308622|    0.597804|    0.027090|
|         366|   -2.542869|   -4.304928|    0.600909|    0.026701|
|         367|   -2.545348|   -4.301780|    0.603807|    0.026297|
|         368|   -2.548315|   -4.299030|    0.606492|    0.025880|
|         369|   -2.551823|   -4.296732|    0.608961|    0.025448|
|         370|   -2.555911|   -4.294726|    0.611211|    0.025004|
|         371|   -2.560622|   -4.293013|    0.613244|    0.024548|
|         372|   -2.565983|   -4.291450|    0.615063|    0.024080|
|         373|   -2.572012|   -4.289961|    0.616672|    0.023601|
|         374|   -2.578722|   -4.288441|    0.618078|    0.023112|
|         375|   -2.586120|   -4.286848|    0.619291|    0.022613|
|         376|   -2.594200|   -4.285104|    0.620319|    0.022106|
|         377|   -2.602959|   -4.283153|    0.621176|    0.021592|
|         378|   -2.612371|   -4.280971|    0.621875|    0.021072|
|         379|   -2.622390|   -4.278596|    0.622430|    0.020546|
|         380|   -2.632961|   -4.275990|    0.622856|    0.020017|
|         381|   -2.644012|   -4.273181|    0.623170|    0.019485|
|         382|   -2.655462|   -4.270169|    0.623387|    0.018953|
|         383|   -2.667202|   -4.266960|    0.623525|    0.018422|
|         384|   -2.679113|   -4.263561|    0.623602|    0.017892|
|         385|   -2.691060|   -4.260001|    0.623633|    0.017367|
|         386|   -2.702885|   -4.256387|    0.623636|    0.016848|
|         387|   -2.714446|   -4.252909|    0.623626|    0.016336|
|         388|   -2.725555|   -4.249430|    0.623620|    0.015834|
|         389|   -2.736043|   -4.246009|    0.623630|    0.015343|
|         390|   -2.745668|   -4.242693|    0.623669|    0.014866|
|         391|   -2.754256|   -4.239729|    0.623750|    0.014403|
|         392|   -2.761681|   -4.236770|    0.623881|    0.013957|
|         393|   -2.767838|   -4.233853|    0.624072|    0.013530|
|         394|   -2.772643|   -4.231212|    0.624327|    0.013123|
|         395|   -2.776086|   -4.228665|    0.624653|    0.012738|
|         396|   -2.778193|   -4.226058|    0.625052|    0.012377|
|         397|   -2.779059|   -4.223736|    0.625525|    0.012040|
|         398|   -2.778818|   -4.221642|    0.626070|    0.011730|
|         399|   -2.777602|   -4.219593|    0.626686|    0.011447|
|         400|   -2.775631|   -4.218151|    0.627368|    0.011192|
|         401|   -2.773022|   -4.216662|    0.628116|    0.010680|
+-----------------------------------------------------------------------+
|Fixed CL Mode                           |Value                         |
+-----------------------------------------------------------------------+
|Current CL                              |0.628116                      |
|Target CL                               |0.622131                      |
|Previous AOA                            |1.1964                        |
|Changed AoA by                          |-0.0261837                    |
+-----------------------------------------------------------------------+
+----------------------------------------------------------------+
|  Inner_Iter|    rms[Rho]|     rms[nu]|          CL|          CD|
+----------------------------------------------------------------+
|         402|   -1.751619|   -4.215273|    0.628912|    0.010485|
|         403|   -2.132457|   -4.214224|    0.629755|    0.010320|
|         404|   -2.380569|   -4.212939|    0.630634|    0.010185|
|         405|   -2.471222|   -4.212001|    0.631539|    0.010082|
|         406|   -2.525278|   -4.210835|    0.632460|    0.010010|
|         407|   -2.578993|   -4.209677|    0.633385|    0.009969|
|         408|   -2.629269|   -4.208306|    0.634304|    0.009958|
|         409|   -2.663310|   -4.206821|    0.635208|    0.009977|
|         410|   -2.676076|   -4.205168|    0.636086|    0.010025|
|         411|   -2.674677|   -4.203381|    0.636929|    0.010101|
|         412|   -2.667896|   -4.201440|    0.637727|    0.010203|
|         413|   -2.660386|   -4.199517|    0.638472|    0.010331|
|         414|   -2.654020|   -4.197503|    0.639155|    0.010483|
|         415|   -2.649971|   -4.195617|    0.639769|    0.010658|
|         416|   -2.649088|   -4.193677|    0.640307|    0.010853|
|         417|   -2.651636|   -4.191649|    0.640765|    0.011066|
|         418|   -2.657061|   -4.189614|    0.641135|    0.011297|
|         419|   -2.664180|   -4.187668|    0.641414|    0.011543|
|         420|   -2.671637|   -4.185852|    0.641600|    0.011802|
|         421|   -2.678267|   -4.184168|    0.641694|    0.012071|
|         422|   -2.683612|   -4.182654|    0.641697|    0.012350|
|         423|   -2.687807|   -4.181306|    0.641609|    0.012637|
|         424|   -2.691261|   -4.180085|    0.641433|    0.012928|
|         425|   -2.694447|   -4.178920|    0.641170|    0.013224|
|         426|   -2.697675|   -4.177821|    0.640824|    0.013521|
|         427|   -2.701096|   -4.176818|    0.640399|    0.013820|
|         428|   -2.704582|   -4.175913|    0.639900|    0.014118|
|         429|   -2.708055|   -4.175144|    0.639331|    0.014415|
|         430|   -2.711467|   -4.174463|    0.638698|    0.014710|
|         431|   -2.714568|   -4.173913|    0.638008|    0.015002|
|         432|   -2.717295|   -4.173498|    0.637266|    0.015291|
|         433|   -2.719248|   -4.173221|    0.636480|    0.015575|
|         434|   -2.720429|   -4.173067|    0.635658|    0.015856|
|         435|   -2.721096|   -4.173052|    0.634806|    0.016132|
|         436|   -2.721778|   -4.173148|    0.633928|    0.016405|
|         437|   -2.722445|   -4.173375|    0.633031|    0.016673|
|         438|   -2.723227|   -4.173744|    0.632118|    0.016938|
|         439|   -2.724212|   -4.174280|    0.631194|    0.017199|
|         440|   -2.725398|   -4.174938|    0.630259|    0.017457|
|         441|   -2.726920|   -4.175704|    0.629316|    0.017713|
|         442|   -2.728279|   -4.176592|    0.628371|    0.017966|
|         443|   -2.729468|   -4.177637|    0.627427|    0.018219|
|         444|   -2.730541|   -4.178792|    0.626485|    0.018470|
|         445|   -2.731678|   -4.180113|    0.625548|    0.018721|
|         446|   -2.733261|   -4.181627|    0.624617|    0.018972|
|         447|   -2.735391|   -4.183342|    0.623694|    0.019224|
|         448|   -2.738120|   -4.185229|    0.622780|    0.019478|
|         449|   -2.741164|   -4.187230|    0.621872|    0.019734|
|         450|   -2.744940|   -4.189317|    0.620967|    0.019993|
|         451|   -2.748515|   -4.191458|    0.620061|    0.020253|
|         452|   -2.751234|   -4.193869|    0.619151|    0.020516|
|         453|   -2.753431|   -4.196495|    0.618234|    0.020781|
|         454|   -2.755479|   -4.199356|    0.617309|    0.021048|
|         455|   -2.757684|   -4.202432|    0.616364|    0.021316|
|         456|   -2.760256|   -4.205711|    0.615391|    0.021583|
|         457|   -2.763320|   -4.209103|    0.614397|    0.021850|
|         458|   -2.766700|   -4.212618|    0.613381|    0.022117|
|         459|   -2.770114|   -4.216254|    0.612347|    0.022384|
|         460|   -2.773443|   -4.220037|    0.611291|    0.022649|
|         461|   -2.776670|   -4.224022|    0.610212|    0.022912|
|         462|   -2.779883|   -4.228178|    0.609105|    0.023172|
|         463|   -2.783226|   -4.232597|    0.607975|    0.023429|
|         464|   -2.786638|   -4.237268|    0.606821|    0.023681|
|         465|   -2.790413|   -4.242194|    0.605644|    0.023929|
|         466|   -2.794882|   -4.247386|    0.604446|    0.024170|
|         467|   -2.799345|   -4.252904|    0.603228|    0.024405|
|         468|   -2.804047|   -4.258725|    0.602005|    0.024634|
|         469|   -2.808785|   -4.264743|    0.600774|    0.024856|
|         470|   -2.812949|   -4.271024|    0.599532|    0.025069|
|         471|   -2.816749|   -4.277573|    0.598277|    0.025272|
|         472|   -2.820191|   -4.284384|    0.597011|    0.025465|
|         473|   -2.823581|   -4.291468|    0.595730|    0.025645|
|         474|   -2.827062|   -4.298785|    0.594440|    0.025811|
|         475|   -2.830729|   -4.306306|    0.593154|    0.025966|
|         476|   -2.834585|   -4.314046|    0.591877|    0.026108|
|         477|   -2.838597|   -4.321997|    0.590614|    0.026237|
|         478|   -2.842700|   -4.330211|    0.589369|    0.026353|
|         479|   -2.846823|   -4.338735|    0.588146|    0.026457|
|         480|   -2.850977|   -4.347558|    0.586946|    0.026547|
|         481|   -2.855060|   -4.356725|    0.585776|    0.026624|
|         482|   -2.859017|   -4.366201|    0.584632|    0.026688|
|         483|   -2.862896|   -4.376065|    0.583518|    0.026738|
|         484|   -2.866695|   -4.386378|    0.582436|    0.026776|
|         485|   -2.870486|   -4.397145|    0.581387|    0.026800|
|         486|   -2.874327|   -4.408350|    0.580372|    0.026812|
|         487|   -2.878268|   -4.419975|    0.579392|    0.026812|
|         488|   -2.882339|   -4.432018|    0.578445|    0.026800|
|         489|   -2.886598|   -4.444455|    0.577534|    0.026776|
|         490|   -2.891011|   -4.457217|    0.576657|    0.026741|
|         491|   -2.895541|   -4.470246|    0.575809|    0.026696|
|         492|   -2.900192|   -4.483521|    0.574990|    0.026639|
|         493|   -2.904928|   -4.496964|    0.574196|    0.026572|
|         494|   -2.909768|   -4.510561|    0.573426|    0.026495|
|         495|   -2.914713|   -4.524283|    0.572678|    0.026408|
|         496|   -2.919808|   -4.538105|    0.571952|    0.026312|
|         497|   -2.925092|   -4.551975|    0.571246|    0.026208|
|         498|   -2.930591|   -4.565829|    0.570557|    0.026095|
|         499|   -2.936306|   -4.579592|    0.569884|    0.025973|
|         500|   -2.942208|   -4.593210|    0.569224|    0.025844|
|         501|   -2.948266|   -4.606611|    0.568574|    0.025707|
|         502|   -2.954427|   -4.619740|    0.567934|    0.025562|
|         503|   -2.960638|   -4.632549|    0.567300|    0.025410|
|         504|   -2.966836|   -4.644993|    0.566671|    0.025251|
|         505|   -2.972953|   -4.657027|    0.566044|    0.025084|
|         506|   -2.978918|   -4.668619|    0.565421|    0.024911|
|         507|   -2.984658|   -4.679730|    0.564798|    0.024732|
|         508|   -2.990097|   -4.690326|    0.564175|    0.024546|
|         509|   -2.995163|   -4.700371|    0.563549|    0.024354|
|         510|   -2.999783|   -4.709864|    0.562922|    0.024156|
|         511|   -3.003886|   -4.718789|    0.562293|    0.023952|
|         512|   -3.007410|   -4.727127|    0.561661|    0.023743|
|         513|   -3.010304|   -4.734960|    0.561028|    0.023528|
|         514|   -3.012524|   -4.742228|    0.560393|    0.023308|
|         515|   -3.014046|   -4.748952|    0.559759|    0.023084|
|         516|   -3.014864|   -4.755133|    0.559125|    0.022855|
|         517|   -3.014989|   -4.760789|    0.558494|    0.022622|
|         518|   -3.014455|   -4.765952|    0.557865|    0.022386|
|         519|   -3.013305|   -4.770647|    0.557242|    0.022146|
|         520|   -3.011598|   -4.774937|    0.556625|    0.021904|
|         521|   -3.009397|   -4.778825|    0.556017|    0.021660|
|         522|   -3.006771|   -4.782384|    0.555418|    0.021414|
|         523|   -3.003797|   -4.785586|    0.554832|    0.021167|
|         524|   -3.000555|   -4.788441|    0.554260|    0.020920|
|         525|   -2.997125|   -4.790968|    0.553705|    0.020672|
|         526|   -2.993577|   -4.793168|    0.553168|    0.020424|
|         527|   -2.989975|   -4.795073|    0.552651|    0.020176|
|         528|   -2.986402|   -4.796655|    0.552156|    0.019930|
|         529|   -2.982921|   -4.797947|    0.551684|    0.019686|
|         530|   -2.979589|   -4.798968|    0.551236|    0.019444|
|         531|   -2.976463|   -4.799759|    0.550814|    0.019204|
|         532|   -2.973588|   -4.800340|    0.550418|    0.018966|
|         533|   -2.971000|   -4.800745|    0.550049|    0.018732|
|         534|   -2.968726|   -4.800993|    0.549707|    0.018502|
|         535|   -2.966775|   -4.801147|    0.549394|    0.018275|
|         536|   -2.965173|   -4.801166|    0.549108|    0.018052|
|         537|   -2.963933|   -4.801079|    0.548849|    0.017833|
|         538|   -2.963077|   -4.800941|    0.548618|    0.017619|
|         539|   -2.962616|   -4.800768|    0.548415|    0.017409|
|         540|   -2.962545|   -4.800586|    0.548240|    0.017203|
|         541|   -2.962875|   -4.800429|    0.548092|    0.017002|
|         542|   -2.963620|   -4.800328|    0.547970|    0.016805|
|         543|   -2.964787|   -4.800308|    0.547874|    0.016612|
|         544|   -2.966392|   -4.800409|    0.547802|    0.016424|
|         545|   -2.968417|   -4.800661|    0.547753|    0.016241|
|         546|   -2.970860|   -4.801079|    0.547727|    0.016061|
|         547|   -2.973716|   -4.801673|    0.547723|    0.015886|
|         548|   -2.976974|   -4.802443|    0.547739|    0.015715|
|         549|   -2.980613|   -4.803361|    0.547776|    0.015549|
|         550|   -2.984622|   -4.804477|    0.547830|    0.015386|
|         551|   -2.988969|   -4.805832|    0.547901|    0.015227|
|         552|   -2.993604|   -4.807417|    0.547988|    0.015073|
|         553|   -2.998504|   -4.809187|    0.548093|    0.014922|
|         554|   -3.003642|   -4.811356|    0.548213|    0.014774|
|         555|   -3.008984|   -4.813775|    0.548349|    0.014630|
|         556|   -3.014491|   -4.816433|    0.548500|    0.014490|
|         557|   -3.020117|   -4.819329|    0.548665|    0.014353|
|         558|   -3.025819|   -4.822462|    0.548844|    0.014220|
|         559|   -3.031550|   -4.825831|    0.549035|    0.014090|
|         560|   -3.037261|   -4.829459|    0.549239|    0.013963|
|         561|   -3.042911|   -4.833252|    0.549454|    0.013840|
|         562|   -3.048458|   -4.837241|    0.549681|    0.013721|
|         563|   -3.053854|   -4.841403|    0.549918|    0.013605|
|         564|   -3.059059|   -4.845753|    0.550165|    0.013493|
|         565|   -3.064023|   -4.850297|    0.550421|    0.013384|
|         566|   -3.068704|   -4.855034|    0.550686|    0.013280|
|         567|   -3.073071|   -4.859958|    0.550961|    0.013179|
|         568|   -3.077106|   -4.865070|    0.551245|    0.013083|
|         569|   -3.080799|   -4.870376|    0.551537|    0.012990|
|         570|   -3.084149|   -4.875831|    0.551836|    0.012901|
|         571|   -3.087162|   -4.881631|    0.552141|    0.012817|
|         572|   -3.089854|   -4.887357|    0.552452|    0.012737|
|         573|   -3.092247|   -4.892956|    0.552768|    0.012662|
|         574|   -3.094373|   -4.897806|    0.553087|    0.012591|
|         575|   -3.096264|   -4.903366|    0.553410|    0.012525|
|         576|   -3.097957|   -4.908924|    0.553734|    0.012464|
|         577|   -3.099491|   -4.914438|    0.554060|    0.012407|
|         578|   -3.100906|   -4.919893|    0.554384|    0.012356|
|         579|   -3.102225|   -4.925275|    0.554707|    0.012309|
|         580|   -3.103481|   -4.930567|    0.555028|    0.012268|
|         581|   -3.104704|   -4.935739|    0.555346|    0.012232|
|         582|   -3.105929|   -4.940744|    0.555662|    0.012201|
|         583|   -3.107191|   -4.945568|    0.555974|    0.012175|
|         584|   -3.108509|   -4.950117|    0.556281|    0.012154|
|         585|   -3.109901|   -4.954249|    0.556580|    0.012139|
|         586|   -3.111388|   -4.958039|    0.556873|    0.012128|
|         587|   -3.112979|   -4.961540|    0.557157|    0.012123|
|         588|   -3.114678|   -4.964678|    0.557432|    0.012123|
|         589|   -3.116496|   -4.967448|    0.557698|    0.012127|
|         590|   -3.118431|   -4.969847|    0.557954|    0.012137|
|         591|   -3.120481|   -4.971933|    0.558199|    0.012151|
|         592|   -3.122637|   -4.973865|    0.558433|    0.012171|
|         593|   -3.124889|   -4.975390|    0.558655|    0.012195|
|         594|   -3.127222|   -4.976481|    0.558866|    0.012223|
|         595|   -3.129625|   -4.977201|    0.559067|    0.012257|
|         596|   -3.132083|   -4.977373|    0.559257|    0.012294|
|         597|   -3.134587|   -4.977028|    0.559437|    0.012336|
|         598|   -3.137124|   -4.976263|    0.559606|    0.012382|
|         599|   -3.139684|   -4.975299|    0.559764|    0.012431|
|         600|   -3.142254|   -4.973915|    0.559913|    0.012485|
|         601|   -3.144838|   -4.972210|    0.559974|    0.015583|
+-----------------------------------------------------------------------+
|Fixed CL Mode                           |Value                         |
+-----------------------------------------------------------------------+
|Current CL                              |0.559974                      |
|Target CL                               |0.622131                      |
|Previous AOA                            |1.17022                       |
|Changed AoA by                          |0.311092                      |
+-----------------------------------------------------------------------+
+----------------------------------------------------------------+
|  Inner_Iter|    rms[Rho]|     rms[nu]|          CL|          CD|
+----------------------------------------------------------------+
|         602|   -0.679241|   -4.709635|    0.560102|    0.015645|
|         603|   -1.064433|   -4.804945|    0.560221|    0.015710|
|         604|   -1.307488|   -4.840188|    0.560331|    0.015778|
|         605|   -1.386427|   -4.860425|    0.560432|    0.015849|
|         606|   -1.439916|   -4.874827|    0.560526|    0.015924|
|         607|   -1.508032|   -4.886201|    0.560612|    0.016001|
|         608|   -1.592044|   -4.895489|    0.560691|    0.016081|
|         609|   -1.680840|   -4.902252|    0.560764|    0.016163|
|         610|   -1.759478|   -4.906240|    0.560832|    0.016248|
|         611|   -1.819435|   -4.907712|    0.560896|    0.016335|
|         612|   -1.860642|   -4.907174|    0.560955|    0.016425|
|         613|   -1.885304|   -4.905297|    0.561010|    0.016516|
|         614|   -1.896332|   -4.902923|    0.561060|    0.016609|
|         615|   -1.899527|   -4.900523|    0.561106|    0.016703|
|         616|   -1.902191|   -4.898192|    0.561147|    0.016800|
|         617|   -1.909651|   -4.895996|    0.561184|    0.016897|
|         618|   -1.923673|   -4.893811|    0.561215|    0.016996|
|         619|   -1.942900|   -4.891611|    0.561242|    0.017097|
|         620|   -1.964276|   -4.889480|    0.561264|    0.017198|
|         621|   -1.984861|   -4.887592|    0.561281|    0.017300|
|         622|   -2.003333|   -4.885968|    0.561292|    0.017403|
|         623|   -2.020224|   -4.884537|    0.561298|    0.017506|
|         624|   -2.036912|   -4.883118|    0.561299|    0.017610|
|         625|   -2.054410|   -4.881612|    0.561295|    0.017715|
|         626|   -2.072823|   -4.879907|    0.561286|    0.017819|
|         627|   -2.091498|   -4.877962|    0.561274|    0.017924|
|         628|   -2.109458|   -4.875761|    0.561258|    0.018029|
|         629|   -2.125756|   -4.873336|    0.561240|    0.018133|
|         630|   -2.139635|   -4.870720|    0.561222|    0.018238|
|         631|   -2.150624|   -4.867954|    0.561205|    0.018343|
|         632|   -2.158672|   -4.865186|    0.561192|    0.018447|
|         633|   -2.164272|   -4.862419|    0.561184|    0.018551|
|         634|   -2.168433|   -4.859716|    0.561186|    0.018654|
|         635|   -2.172434|   -4.857166|    0.561201|    0.018757|
|         636|   -2.177491|   -4.854757|    0.561230|    0.018860|
|         637|   -2.184500|   -4.852465|    0.561279|    0.018962|
|         638|   -2.193906|   -4.850241|    0.561350|    0.019063|
|         639|   -2.205676|   -4.848090|    0.561447|    0.019164|
|         640|   -2.219342|   -4.846125|    0.561573|    0.019265|
|         641|   -2.234077|   -4.844361|    0.561734|    0.019365|
|         642|   -2.248812|   -4.842762|    0.561933|    0.019464|
|         643|   -2.262446|   -4.841357|    0.562176|    0.019563|
|         644|   -2.274114|   -4.840094|    0.562467|    0.019662|
|         645|   -2.283426|   -4.839077|    0.562812|    0.019760|
|         646|   -2.290585|   -4.838306|    0.563215|    0.019859|
|         647|   -2.296281|   -4.837784|    0.563684|    0.019957|
|         648|   -2.301454|   -4.837516|    0.564222|    0.020056|
|         649|   -2.307018|   -4.837356|    0.564836|    0.020155|
|         650|   -2.313658|   -4.837447|    0.565532|    0.020254|
|         651|   -2.321736|   -4.837870|    0.566313|    0.020355|
|         652|   -2.331285|   -4.838646|    0.567186|    0.020455|
|         653|   -2.342065|   -4.839751|    0.568152|    0.020557|
|         654|   -2.353662|   -4.841170|    0.569215|    0.020659|
|         655|   -2.365595|   -4.842888|    0.570377|    0.020762|
|         656|   -2.377420|   -4.844945|    0.571638|    0.020866|
|         657|   -2.388830|   -4.847433|    0.572998|    0.020970|
|         658|   -2.399690|   -4.850331|    0.574454|    0.021075|
|         659|   -2.410040|   -4.853719|    0.576003|    0.021180|
|         660|   -2.420046|   -4.857572|    0.577640|    0.021285|
|         661|   -2.429937|   -4.861968|    0.579358|    0.021389|
|         662|   -2.439934|   -4.867037|    0.581150|    0.021494|
|         663|   -2.450210|   -4.872642|    0.583004|    0.021598|
|         664|   -2.460866|   -4.878916|    0.584912|    0.021700|
|         665|   -2.471925|   -4.886034|    0.586861|    0.021801|
|         666|   -2.483352|   -4.893855|    0.588838|    0.021900|
|         667|   -2.495077|   -4.902303|    0.590828|    0.021997|
|         668|   -2.507017|   -4.909454|    0.592817|    0.022091|
|         669|   -2.519091|   -4.921564|    0.594791|    0.022182|
|         670|   -2.531240|   -4.934793|    0.596733|    0.022269|
|         671|   -2.543425|   -4.947944|    0.598627|    0.022352|
|         672|   -2.555630|   -4.961614|    0.600460|    0.022430|
|         673|   -2.567853|   -4.975431|    0.602215|    0.022504|
|         674|   -2.580101|   -4.988918|    0.603881|    0.022572|
|         675|   -2.592379|   -5.001862|    0.605443|    0.022635|
|         676|   -2.604687|   -5.013853|    0.606890|    0.022693|
|         677|   -2.617015|   -5.024133|    0.608213|    0.022745|
|         678|   -2.629344|   -5.032169|    0.609402|    0.022791|
|         679|   -2.641640|   -5.037539|    0.610452|    0.022832|
|         680|   -2.653858|   -5.039796|    0.611356|    0.022867|
|         681|   -2.665941|   -5.038737|    0.612112|    0.022896|
|         682|   -2.677821|   -5.034450|    0.612718|    0.022920|
|         683|   -2.689421|   -5.027166|    0.613174|    0.022939|
|         684|   -2.700657|   -5.017388|    0.613482|    0.022952|
|         685|   -2.711444|   -5.005773|    0.613645|    0.022961|
|         686|   -2.721695|   -4.992911|    0.613666|    0.022965|
|         687|   -2.731329|   -4.979383|    0.613552|    0.022964|
|         688|   -2.740278|   -4.965726|    0.613307|    0.022960|
|         689|   -2.748490|   -4.952344|    0.612940|    0.022951|
|         690|   -2.755931|   -4.939589|    0.612457|    0.022938|
|         691|   -2.762596|   -4.927758|    0.611866|    0.022922|
|         692|   -2.768500|   -4.917046|    0.611175|    0.022903|
|         693|   -2.773687|   -4.907610|    0.610392|    0.022881|
|         694|   -2.778218|   -4.899553|    0.609524|    0.022855|
|         695|   -2.782175|   -4.892900|    0.608579|    0.022827|
|         696|   -2.785655|   -4.887703|    0.607564|    0.022796|
|         697|   -2.788758|   -4.884046|    0.606488|    0.022763|
|         698|   -2.791591|   -4.881971|    0.605355|    0.022727|
|         699|   -2.794257|   -4.881424|    0.604172|    0.022689|
|         700|   -2.796860|   -4.882335|    0.602946|    0.022649|
|         701|   -2.799483|   -4.884665|    0.601681|    0.022607|
|         702|   -2.802206|   -4.888340|    0.600383|    0.022563|
|         703|   -2.805096|   -4.893315|    0.599056|    0.022518|
|         704|   -2.808208|   -4.899479|    0.597704|    0.022470|
|         705|   -2.811583|   -4.906747|    0.596334|    0.022421|
|         706|   -2.815250|   -4.915022|    0.594947|    0.022370|
|         707|   -2.819229|   -4.924162|    0.593550|    0.022318|
|         708|   -2.823532|   -4.934037|    0.592146|    0.022264|
|         709|   -2.828160|   -4.944476|    0.590739|    0.022208|
|         710|   -2.833106|   -4.955250|    0.589334|    0.022152|
|         711|   -2.838358|   -4.966190|    0.587934|    0.022094|
|         712|   -2.843901|   -4.976998|    0.586545|    0.022034|
|         713|   -2.849715|   -4.987247|    0.585171|    0.021974|
|         714|   -2.855780|   -4.996409|    0.583816|    0.021913|
|         715|   -2.862074|   -5.005876|    0.582486|    0.021851|
|         716|   -2.868577|   -5.014089|    0.581185|    0.021788|
|         717|   -2.875268|   -5.021133|    0.579919|    0.021725|
|         718|   -2.882130|   -5.026657|    0.578692|    0.021661|
|         719|   -2.889146|   -5.030645|    0.577510|    0.021597|
|         720|   -2.896301|   -5.032825|    0.576378|    0.021533|
|         721|   -2.903585|   -5.033317|    0.575300|    0.021469|
|         722|   -2.910989|   -5.032386|    0.574282|    0.021405|
|         723|   -2.918507|   -5.030086|    0.573328|    0.021342|
|         724|   -2.926135|   -5.026636|    0.572442|    0.021279|
|         725|   -2.933869|   -5.022036|    0.571630|    0.021217|
|         726|   -2.941705|   -5.016529|    0.570895|    0.021157|
|         727|   -2.949637|   -5.010294|    0.570242|    0.021097|
|         728|   -2.957659|   -5.003510|    0.569672|    0.021038|
|         729|   -2.965758|   -4.996420|    0.569190|    0.020982|
|         730|   -2.973924|   -4.989195|    0.568798|    0.020926|
|         731|   -2.982142|   -4.981883|    0.568497|    0.020872|
|         732|   -2.990390|   -4.974594|    0.568289|    0.020820|
|         733|   -2.998638|   -4.967367|    0.568175|    0.020769|
|         734|   -3.006852|   -4.960262|    0.568154|    0.020721|
|         735|   -3.014991|   -4.953226|    0.568228|    0.020673|
|         736|   -3.023005|   -4.945731|    0.568394|    0.020628|
|         737|   -3.030838|   -4.939622|    0.568651|    0.020584|
|         738|   -3.038430|   -4.933660|    0.568997|    0.020542|
|         739|   -3.045713|   -4.927981|    0.569429|    0.020501|
|         740|   -3.052647|   -4.922546|    0.569943|    0.020462|
|         741|   -3.059138|   -4.917410|    0.570535|    0.020424|
|         742|   -3.065131|   -4.912478|    0.571201|    0.020387|
|         743|   -3.070581|   -4.907616|    0.571935|    0.020352|
|         744|   -3.075472|   -4.902888|    0.572733|    0.020317|
|         745|   -3.079729|   -4.898269|    0.573588|    0.020284|
|         746|   -3.083350|   -4.893760|    0.574494|    0.020251|
|         747|   -3.086327|   -4.889314|    0.575444|    0.020218|
|         748|   -3.088633|   -4.884927|    0.576433|    0.020186|
|         749|   -3.090305|   -4.880566|    0.577452|    0.020155|
|         750|   -3.091390|   -4.876193|    0.578496|    0.020123|
|         751|   -3.091941|   -4.871739|    0.579557|    0.020092|
|         752|   -3.092020|   -4.867200|    0.580628|    0.020061|
|         753|   -3.091700|   -4.862581|    0.581702|    0.020029|
|         754|   -3.091064|   -4.857889|    0.582774|    0.019997|
|         755|   -3.090180|   -4.853078|    0.583837|    0.019965|
|         756|   -3.089140|   -4.848161|    0.584885|    0.019932|
|         757|   -3.088033|   -4.843151|    0.585912|    0.019898|
|         758|   -3.086943|   -4.838067|    0.586913|    0.019863|
|         759|   -3.085947|   -4.832929|    0.587882|    0.019828|
|         760|   -3.085090|   -4.827764|    0.588816|    0.019791|
|         761|   -3.084471|   -4.822621|    0.589711|    0.019754|
|         762|   -3.084143|   -4.817536|    0.590562|    0.019715|
|         763|   -3.084158|   -4.812537|    0.591367|    0.019675|
|         764|   -3.084559|   -4.807652|    0.592123|    0.019634|
|         765|   -3.085406|   -4.802929|    0.592829|    0.019592|
|         766|   -3.086719|   -4.798408|    0.593484|    0.019548|
|         767|   -3.088526|   -4.794132|    0.594086|    0.019504|
|         768|   -3.090848|   -4.790151|    0.594636|    0.019457|
|         769|   -3.093699|   -4.786461|    0.595135|    0.019410|
|         770|   -3.097087|   -4.783120|    0.595582|    0.019362|
|         771|   -3.101015|   -4.780083|    0.595980|    0.019312|
|         772|   -3.105479|   -4.777357|    0.596330|    0.019262|
|         773|   -3.110471|   -4.774917|    0.596635|    0.019210|
|         774|   -3.115978|   -4.772810|    0.596897|    0.019158|
|         775|   -3.121998|   -4.771063|    0.597120|    0.019106|
|         776|   -3.128483|   -4.769119|    0.597307|    0.019052|
|         777|   -3.135391|   -4.767810|    0.597462|    0.018999|
|         778|   -3.142678|   -4.766487|    0.597589|    0.018945|
|         779|   -3.150290|   -4.765215|    0.597691|    0.018891|
|         780|   -3.158161|   -4.764049|    0.597773|    0.018838|
|         781|   -3.166217|   -4.762931|    0.597838|    0.018785|
|         782|   -3.174377|   -4.761901|    0.597892|    0.018733|
|         783|   -3.182550|   -4.760951|    0.597937|    0.018682|
|         784|   -3.190640|   -4.759871|    0.597978|    0.018633|
|         785|   -3.198547|   -4.758671|    0.598020|    0.018585|
|         786|   -3.206168|   -4.757719|    0.598064|    0.018538|
|         787|   -3.213398|   -4.756854|    0.598116|    0.018494|
|         788|   -3.220139|   -4.756025|    0.598178|    0.018452|
|         789|   -3.226298|   -4.755217|    0.598253|    0.018413|
|         790|   -3.231796|   -4.754413|    0.598344|    0.018377|
|         791|   -3.236568|   -4.753638|    0.598453|    0.018343|
|         792|   -3.240572|   -4.752899|    0.598582|    0.018313|
|         793|   -3.243783|   -4.752209|    0.598732|    0.018287|
|         794|   -3.246203|   -4.751586|    0.598903|    0.018263|
|         795|   -3.247853|   -4.751058|    0.599098|    0.018244|
|         796|   -3.248780|   -4.750676|    0.599315|    0.018229|
|         797|   -3.249045|   -4.750370|    0.599555|    0.018218|
|         798|   -3.248725|   -4.749989|    0.599817|    0.018210|
|         799|   -3.247910|   -4.749636|    0.600100|    0.018207|
|         800|   -3.246692|   -4.749348|    0.600402|    0.018208|
|         801|   -3.245171|   -4.749122|    0.600685|    0.019352|
+-----------------------------------------------------------------------+
|Fixed CL Mode                           |Value                         |
+-----------------------------------------------------------------------+
|Current CL                              |0.600685                      |
|Target CL                               |0.622131                      |
|Previous AOA                            |1.48131                       |
|Changed AoA by                          |0.108647                      |
+-----------------------------------------------------------------------+
+----------------------------------------------------------------+
|  Inner_Iter|    rms[Rho]|     rms[nu]|          CL|          CD|
+----------------------------------------------------------------+
|         802|   -1.136145|   -4.727788|    0.601020|    0.019362|
|         803|   -1.521123|   -4.738243|    0.601367|    0.019376|
|         804|   -1.762608|   -4.741223|    0.601725|    0.019393|
|         805|   -1.839734|   -4.742824|    0.602091|    0.019415|
|         806|   -1.891876|   -4.743982|    0.602462|    0.019440|
|         807|   -1.958756|   -4.744930|    0.602835|    0.019468|
|         808|   -2.041521|   -4.745722|    0.603208|    0.019499|
|         809|   -2.129350|   -4.746327|    0.603577|    0.019533|
|         810|   -2.207963|   -4.746657|    0.603940|    0.019570|
|         811|   -2.269274|   -4.746793|    0.604294|    0.019609|
|         812|   -2.312963|   -4.746846|    0.604636|    0.019650|
|         813|   -2.340517|   -4.746849|    0.604964|    0.019692|
|         814|   -2.354040|   -4.746845|    0.605276|    0.019736|
|         815|   -2.358860|   -4.746849|    0.605569|    0.019780|
|         816|   -2.362306|   -4.746891|    0.605843|    0.019825|
|         817|   -2.369985|   -4.746982|    0.606095|    0.019870|
|         818|   -2.383921|   -4.747064|    0.606324|    0.019915|
|         819|   -2.402934|   -4.747068|    0.606530|    0.019960|
|         820|   -2.424079|   -4.747038|    0.606711|    0.020004|
|         821|   -2.444499|   -4.747034|    0.606868|    0.020046|
|         822|   -2.462931|   -4.747084|    0.607001|    0.020088|
|         823|   -2.479925|   -4.747207|    0.607111|    0.020127|
|         824|   -2.496822|   -4.747402|    0.607196|    0.020165|
|         825|   -2.514544|   -4.747660|    0.607260|    0.020201|
|         826|   -2.533065|   -4.747970|    0.607303|    0.020235|
|         827|   -2.551584|   -4.748312|    0.607326|    0.020267|
|         828|   -2.568995|   -4.748725|    0.607332|    0.020296|
|         829|   -2.584280|   -4.749208|    0.607322|    0.020323|
|         830|   -2.596703|   -4.749773|    0.607300|    0.020348|
|         831|   -2.605911|   -4.750400|    0.607266|    0.020370|
|         832|   -2.612027|   -4.751087|    0.607225|    0.020391|
|         833|   -2.615721|   -4.751821|    0.607179|    0.020409|
|         834|   -2.618111|   -4.752595|    0.607130|    0.020425|
|         835|   -2.620498|   -4.753396|    0.607083|    0.020439|
|         836|   -2.624045|   -4.754227|    0.607039|    0.020451|
|         837|   -2.629554|   -4.755091|    0.607001|    0.020462|
|         838|   -2.637372|   -4.755985|    0.606973|    0.020471|
|         839|   -2.647390|   -4.756868|    0.606957|    0.020479|
|         840|   -2.659102|   -4.757730|    0.606956|    0.020487|
|         841|   -2.671692|   -4.758593|    0.606972|    0.020494|
|         842|   -2.684163|   -4.759448|    0.607008|    0.020501|
|         843|   -2.695538|   -4.760308|    0.607065|    0.020507|
|         844|   -2.705090|   -4.761180|    0.607147|    0.020514|
|         845|   -2.712541|   -4.762083|    0.607256|    0.020521|
|         846|   -2.718129|   -4.762986|    0.607393|    0.020529|
|         847|   -2.722499|   -4.763947|    0.607561|    0.020538|
|         848|   -2.726488|   -4.764970|    0.607761|    0.020548|
|         849|   -2.730880|   -4.765730|    0.607995|    0.020560|
|         850|   -2.736248|   -4.766705|    0.608265|    0.020574|
|         851|   -2.742877|   -4.768052|    0.608571|    0.020589|
|         852|   -2.750771|   -4.769547|    0.608916|    0.020606|
|         853|   -2.759706|   -4.771195|    0.609298|    0.020626|
|         854|   -2.769322|   -4.773038|    0.609719|    0.020648|
|         855|   -2.779216|   -4.775112|    0.610179|    0.020672|
|         856|   -2.789034|   -4.777415|    0.610675|    0.020698|
|         857|   -2.798538|   -4.779959|    0.611208|    0.020727|
|         858|   -2.807637|   -4.782779|    0.611776|    0.020758|
|         859|   -2.816379|   -4.785965|    0.612376|    0.020791|
|         860|   -2.824901|   -4.789411|    0.613005|    0.020826|
|         861|   -2.833381|   -4.792905|    0.613662|    0.020863|
|         862|   -2.841989|   -4.796940|    0.614341|    0.020902|
|         863|   -2.850850|   -4.801348|    0.615040|    0.020942|
|         864|   -2.860031|   -4.806143|    0.615753|    0.020984|
|         865|   -2.869538|   -4.811245|    0.616476|    0.021026|
|         866|   -2.879332|   -4.816631|    0.617203|    0.021069|
|         867|   -2.889349|   -4.822426|    0.617930|    0.021113|
|         868|   -2.899516|   -4.828642|    0.618650|    0.021156|
|         869|   -2.909764|   -4.835197|    0.619359|    0.021200|
|         870|   -2.920048|   -4.842019|    0.620051|    0.021243|
|         871|   -2.930326|   -4.849123|    0.620719|    0.021285|
|         872|   -2.940575|   -4.856490|    0.621360|    0.021326|
|         873|   -2.950785|   -4.864028|    0.621968|    0.021365|
|         874|   -2.960954|   -4.871670|    0.622538|    0.021404|
|         875|   -2.971074|   -4.879402|    0.623067|    0.021440|
|         876|   -2.981137|   -4.887167|    0.623550|    0.021474|
|         877|   -2.991130|   -4.894929|    0.623985|    0.021507|
|         878|   -3.001037|   -4.902677|    0.624369|    0.021537|
|         879|   -3.010832|   -4.910379|    0.624700|    0.021565|
|         880|   -3.020491|   -4.917897|    0.624977|    0.021591|
|         881|   -3.029977|   -4.925232|    0.625199|    0.021614|
|         882|   -3.039259|   -4.932295|    0.625366|    0.021635|
|         883|   -3.048298|   -4.939097|    0.625478|    0.021653|
|         884|   -3.057057|   -4.945573|    0.625536|    0.021669|
|         885|   -3.065501|   -4.951792|    0.625543|    0.021683|
|         886|   -3.073602|   -4.957698|    0.625498|    0.021695|
|         887|   -3.081332|   -4.963301|    0.625406|    0.021704|
|         888|   -3.088673|   -4.968628|    0.625267|    0.021712|
|         889|   -3.095617|   -4.973762|    0.625085|    0.021717|
|         890|   -3.102161|   -4.978759|    0.624862|    0.021721|
|         891|   -3.108316|   -4.983697|    0.624601|    0.021723|
|         892|   -3.114099|   -4.988592|    0.624305|    0.021723|
|         893|   -3.119537|   -4.993571|    0.623976|    0.021722|
|         894|   -3.124667|   -4.998728|    0.623618|    0.021720|
|         895|   -3.129531|   -5.004116|    0.623231|    0.021715|
|         896|   -3.134176|   -5.009774|    0.622820|    0.021710|
|         897|   -3.138652|   -5.015741|    0.622385|    0.021704|
|         898|   -3.143007|   -5.022049|    0.621929|    0.021696|
|         899|   -3.147290|   -5.028703|    0.621454|    0.021688|
|         900|   -3.151545|   -5.035708|    0.620962|    0.021678|
|         901|   -3.155813|   -5.043101|    0.620453|    0.021668|
|         902|   -3.160128|   -5.050884|    0.619930|    0.021657|
|         903|   -3.164518|   -5.059072|    0.619393|    0.021645|
|         904|   -3.168999|   -5.067641|    0.618845|    0.021633|
|         905|   -3.173585|   -5.076576|    0.618286|    0.021619|
|         906|   -3.178280|   -5.085852|    0.617717|    0.021606|
|         907|   -3.183082|   -5.095455|    0.617140|    0.021592|
|         908|   -3.187981|   -5.105309|    0.616557|    0.021577|
|         909|   -3.192962|   -5.115367|    0.615968|    0.021562|
|         910|   -3.198003|   -5.125562|    0.615375|    0.021546|
|         911|   -3.203080|   -5.135837|    0.614779|    0.021530|
|         912|   -3.208165|   -5.146127|    0.614183|    0.021514|
|         913|   -3.213231|   -5.156394|    0.613588|    0.021497|
|         914|   -3.218246|   -5.166578|    0.612995|    0.021480|
|         915|   -3.223182|   -5.176620|    0.612406|    0.021463|
|         916|   -3.228012|   -5.186429|    0.611824|    0.021446|
|         917|   -3.232712|   -5.195936|    0.611250|    0.021428|
|         918|   -3.237262|   -5.205104|    0.610687|    0.021411|
|         919|   -3.241645|   -5.213931|    0.610136|    0.021394|
|         920|   -3.245848|   -5.222404|    0.609600|    0.021376|
|         921|   -3.249862|   -5.230385|    0.609081|    0.021359|
|         922|   -3.253685|   -5.237732|    0.608581|    0.021342|
|         923|   -3.257315|   -5.244620|    0.608102|    0.021325|
|         924|   -3.260759|   -5.251054|    0.607647|    0.021309|
|         925|   -3.264023|   -5.256942|    0.607217|    0.021293|
|         926|   -3.267118|   -5.262305|    0.606814|    0.021277|
|         927|   -3.270057|   -5.267149|    0.606439|    0.021262|
|         928|   -3.272856|   -5.271538|    0.606096|    0.021247|
|         929|   -3.275532|   -5.275491|    0.605784|    0.021233|
|         930|   -3.278100|   -5.278947|    0.605505|    0.021220|
|         931|   -3.280577|   -5.282080|    0.605260|    0.021207|
|         932|   -3.282982|   -5.284888|    0.605051|    0.021195|
|         933|   -3.285330|   -5.287471|    0.604876|    0.021184|
|         934|   -3.287637|   -5.289895|    0.604738|    0.021173|
|         935|   -3.289917|   -5.292206|    0.604636|    0.021163|
|         936|   -3.292182|   -5.294435|    0.604569|    0.021154|
|         937|   -3.294444|   -5.296627|    0.604537|    0.021146|
|         938|   -3.296712|   -5.298824|    0.604540|    0.021138|
|         939|   -3.298995|   -5.301033|    0.604577|    0.021131|
|         940|   -3.301300|   -5.303267|    0.604646|    0.021124|
|         941|   -3.303633|   -5.305523|    0.604746|    0.021118|
|         942|   -3.306000|   -5.307778|    0.604875|    0.021112|
|         943|   -3.308404|   -5.309999|    0.605033|    0.021106|
|         944|   -3.310850|   -5.312132|    0.605216|    0.021101|
|         945|   -3.313340|   -5.314115|    0.605424|    0.021096|
|         946|   -3.315877|   -5.315895|    0.605653|    0.021091|
|         947|   -3.318464|   -5.317363|    0.605901|    0.021085|
|         948|   -3.321103|   -5.318438|    0.606166|    0.021080|
|         949|   -3.323796|   -5.319037|    0.606445|    0.021075|
|         950|   -3.326543|   -5.319041|    0.606736|    0.021069|
|         951|   -3.329348|   -5.318386|    0.607037|    0.021062|
|         952|   -3.332204|   -5.317002|    0.607344|    0.021055|
|         953|   -3.335109|   -5.314846|    0.607655|    0.021048|
|         954|   -3.338076|   -5.311906|    0.607968|    0.021039|
|         955|   -3.341106|   -5.308196|    0.608280|    0.021030|
|         956|   -3.344181|   -5.303751|    0.608590|    0.021020|
|         957|   -3.347316|   -5.298641|    0.608894|    0.021008|
|         958|   -3.350512|   -5.292965|    0.609192|    0.020996|
|         959|   -3.353770|   -5.286803|    0.609480|    0.020982|
[...]
|       10297|   -6.028744|   -7.630290|    0.622320|    0.020903|
|       10298|   -6.031345|   -7.636369|    0.622320|    0.020903|
|       10299|   -6.034340|   -7.642120|    0.622320|    0.020903|
|       10300|   -6.037729|   -7.647542|    0.622319|    0.020903|
|       10301|   -6.041505|   -7.652636|    0.622319|    0.020903|
|       10302|   -6.045661|   -7.657409|    0.622319|    0.020903|
|       10303|   -6.050186|   -7.661874|    0.622318|    0.020903|
|       10304|   -6.055064|   -7.666047|    0.622318|    0.020903|
|       10305|   -6.060277|   -7.669951|    0.622318|    0.020903|
|       10306|   -6.065807|   -7.673609|    0.622317|    0.020903|
|       10307|   -6.071630|   -7.677050|    0.622317|    0.020903|
|       10308|   -6.077722|   -7.680303|    0.622317|    0.020902|
|       10309|   -6.084057|   -7.683401|    0.622316|    0.020902|
|       10310|   -6.090607|   -7.686374|    0.622316|    0.020902|
|       10311|   -6.097342|   -7.689256|    0.622315|    0.020902|
|       10312|   -6.104235|   -7.692078|    0.622315|    0.020902|
|       10313|   -6.111253|   -7.694870|    0.622315|    0.020902|
|       10314|   -6.118368|   -7.697661|    0.622314|    0.020902|
|       10315|   -6.125548|   -7.700477|    0.622314|    0.020902|
|       10316|   -6.132764|   -7.703343|    0.622313|    0.020902|
|       10317|   -6.139986|   -7.706281|    0.622313|    0.020902|
|       10318|   -6.147187|   -7.709310|    0.622312|    0.020902|
|       10319|   -6.154338|   -7.712448|    0.622312|    0.020902|
|       10320|   -6.161413|   -7.715711|    0.622311|    0.020902|
|       10321|   -6.168388|   -7.719111|    0.622311|    0.020901|
|       10322|   -6.175238|   -7.722659|    0.622310|    0.020901|
|       10323|   -6.181944|   -7.726365|    0.622310|    0.020901|
|       10324|   -6.188485|   -7.730237|    0.622309|    0.020901|
|       10325|   -6.194845|   -7.734283|    0.622309|    0.020901|
|       10326|   -6.201009|   -7.738508|    0.622308|    0.020901|
|       10327|   -6.206967|   -7.742918|    0.622307|    0.020901|
|       10328|   -6.212710|   -7.747520|    0.622307|    0.020901|
|       10329|   -6.218234|   -7.752319|    0.622306|    0.020901|
|       10330|   -6.223539|   -7.757320|    0.622306|    0.020901|
|       10331|   -6.228630|   -7.762529|    0.622305|    0.020901|
|       10332|   -6.233514|   -7.767953|    0.622305|    0.020901|
|       10333|   -6.238205|   -7.773598|    0.622304|    0.020901|
|       10334|   -6.242720|   -7.779470|    0.622304|    0.020901|
|       10335|   -6.247082|   -7.785576|    0.622303|    0.020901|
|       10336|   -6.251317|   -7.791922|    0.622303|    0.020901|
|       10337|   -6.255453|   -7.798516|    0.622302|    0.020900|
|       10338|   -6.259524|   -7.805361|    0.622302|    0.020900|
|       10339|   -6.263563|   -7.812464|    0.622302|    0.020900|
|       10340|   -6.267606|   -7.819828|    0.622301|    0.020900|
|       10341|   -6.271686|   -7.827455|    0.622301|    0.020900|
|       10342|   -6.275837|   -7.835345|    0.622300|    0.020900|
|       10343|   -6.280093|   -7.843496|    0.622300|    0.020900|
|       10344|   -6.284480|   -7.851903|    0.622300|    0.020900|
|       10345|   -6.289023|   -7.860558|    0.622299|    0.020900|
|       10346|   -6.293739|   -7.869451|    0.622299|    0.020900|
|       10347|   -6.298641|   -7.878566|    0.622299|    0.020900|
|       10348|   -6.303735|   -7.887886|    0.622298|    0.020900|
|       10349|   -6.309017|   -7.897388|    0.622298|    0.020900|
|       10350|   -6.314476|   -7.907045|    0.622298|    0.020900|
|       10351|   -6.320093|   -7.916829|    0.622297|    0.020900|
|       10352|   -6.325840|   -7.926703|    0.622297|    0.020900|
|       10353|   -6.331679|   -7.936630|    0.622297|    0.020900|
|       10354|   -6.337565|   -7.946570|    0.622297|    0.020900|
|       10355|   -6.343445|   -7.956478|    0.622297|    0.020900|
|       10356|   -6.349261|   -7.966308|    0.622296|    0.020900|
|       10357|   -6.354949|   -7.976015|    0.622296|    0.020900|
|       10358|   -6.360442|   -7.985550|    0.622296|    0.020900|
|       10359|   -6.365671|   -7.994868|    0.622296|    0.020900|
|       10360|   -6.370574|   -8.003927|    0.622296|    0.020900|
|       10361|   -6.375089|   -8.012686|    0.622295|    0.020900|
|       10362|   -6.379165|   -8.021110|    0.622295|    0.020900|
|       10363|   -6.382762|   -8.029172|    0.622295|    0.020900|
|       10364|   -6.385851|   -8.036849|    0.622295|    0.020900|
|       10365|   -6.388421|   -8.044126|    0.622295|    0.020900|
|       10366|   -6.390473|   -8.050996|    0.622294|    0.020900|
|       10367|   -6.392026|   -8.057457|    0.622294|    0.020900|
|       10368|   -6.393107|   -8.063516|    0.622294|    0.020900|
|       10369|   -6.393762|   -8.069184|    0.622294|    0.020899|
|       10370|   -6.394044|   -8.074478|    0.622294|    0.020899|
|       10371|   -6.394013|   -8.079419|    0.622293|    0.020899|
|       10372|   -6.393734|   -8.084029|    0.622293|    0.020899|
|       10373|   -6.393273|   -8.088334|    0.622293|    0.020899|
|       10374|   -6.392695|   -8.092356|    0.622293|    0.020899|
|       10375|   -6.392064|   -8.096121|    0.622293|    0.020899|
|       10376|   -6.391436|   -8.099650|    0.622292|    0.020899|
|       10377|   -6.390864|   -8.102961|    0.622292|    0.020899|
|       10378|   -6.390392|   -8.106073|    0.622292|    0.020899|
|       10379|   -6.390059|   -8.108996|    0.622292|    0.020899|
|       10380|   -6.389897|   -8.111743|    0.622292|    0.020899|
|       10381|   -6.389930|   -8.114318|    0.622291|    0.020899|
|       10382|   -6.390178|   -8.116725|    0.622291|    0.020899|
|       10383|   -6.390652|   -8.118964|    0.622291|    0.020899|
|       10384|   -6.391362|   -8.121034|    0.622291|    0.020899|
|       10385|   -6.392310|   -8.122931|    0.622291|    0.020899|
|       10386|   -6.393498|   -8.124650|    0.622290|    0.020899|
|       10387|   -6.394923|   -8.126188|    0.622290|    0.020899|
|       10388|   -6.396583|   -8.127538|    0.622290|    0.020899|
|       10389|   -6.398474|   -8.128695|    0.622290|    0.020899|
|       10390|   -6.400590|   -8.129657|    0.622289|    0.020899|
|       10391|   -6.402929|   -8.130423|    0.622289|    0.020899|
|       10392|   -6.405487|   -8.130992|    0.622289|    0.020899|
|       10393|   -6.408264|   -8.131368|    0.622289|    0.020899|
|       10394|   -6.411260|   -8.131553|    0.622288|    0.020899|
|       10395|   -6.414475|   -8.131552|    0.622288|    0.020899|
|       10396|   -6.417911|   -8.131369|    0.622288|    0.020899|
|       10397|   -6.421572|   -8.131012|    0.622288|    0.020899|
|       10398|   -6.425462|   -8.130487|    0.622288|    0.020899|
|       10399|   -6.429586|   -8.129803|    0.622287|    0.020899|
|       10400|   -6.433948|   -8.128966|    0.622287|    0.020899|
|       10401|   -6.438551|   -8.127985|    0.622287|    0.020899|
|       10402|   -6.443397|   -8.126865|    0.622287|    0.020899|
|       10403|   -6.448486|   -8.125612|    0.622287|    0.020899|
|       10404|   -6.453814|   -8.124231|    0.622286|    0.020899|
|       10405|   -6.459375|   -8.122726|    0.622286|    0.020899|
|       10406|   -6.465155|   -8.121099|    0.622286|    0.020899|
|       10407|   -6.471139|   -8.119351|    0.622286|    0.020899|
|       10408|   -6.477305|   -8.117485|    0.622286|    0.020899|
|       10409|   -6.483627|   -8.115499|    0.622285|    0.020899|
|       10410|   -6.490071|   -8.113392|    0.622285|    0.020899|
|       10411|   -6.496600|   -8.111165|    0.622285|    0.020899|
|       10412|   -6.503170|   -8.108815|    0.622285|    0.020899|
|       10413|   -6.509735|   -8.106342|    0.622285|    0.020899|
|       10414|   -6.516243|   -8.103746|    0.622284|    0.020899|
|       10415|   -6.522641|   -8.101028|    0.622284|    0.020899|
|       10416|   -6.528875|   -8.098190|    0.622284|    0.020899|
|       10417|   -6.534892|   -8.095237|    0.622284|    0.020899|
|       10418|   -6.540642|   -8.092173|    0.622284|    0.020899|
|       10419|   -6.546078|   -8.089007|    0.622284|    0.020899|
|       10420|   -6.551160|   -8.085746|    0.622284|    0.020899|
|       10421|   -6.555857|   -8.082403|    0.622283|    0.020899|
|       10422|   -6.560145|   -8.078988|    0.622283|    0.020899|
|       10423|   -6.564013|   -8.075518|    0.622283|    0.020899|
|       10424|   -6.567458|   -8.072007|    0.622283|    0.020899|
|       10425|   -6.570489|   -8.068470|    0.622283|    0.020899|
|       10426|   -6.573122|   -8.064926|    0.622283|    0.020899|
|       10427|   -6.575385|   -8.061392|    0.622283|    0.020899|
|       10428|   -6.577309|   -8.057885|    0.622283|    0.020899|
|       10429|   -6.578933|   -8.054422|    0.622282|    0.020899|
|       10430|   -6.580299|   -8.051020|    0.622282|    0.020899|
|       10431|   -6.581448|   -8.047694|    0.622282|    0.020899|
|       10432|   -6.582423|   -8.044460|    0.622282|    0.020899|
|       10433|   -6.583265|   -8.041330|    0.622282|    0.020899|
|       10434|   -6.584010|   -8.038317|    0.622282|    0.020899|
|       10435|   -6.584692|   -8.035430|    0.622282|    0.020899|
|       10436|   -6.585339|   -8.032678|    0.622282|    0.020899|
|       10437|   -6.585975|   -8.030067|    0.622281|    0.020899|
|       10438|   -6.586618|   -8.027604|    0.622281|    0.020899|
|       10439|   -6.587280|   -8.025290|    0.622281|    0.020899|
|       10440|   -6.587967|   -8.023128|    0.622281|    0.020899|
|       10441|   -6.588682|   -8.021116|    0.622281|    0.020899|
|       10442|   -6.589425|   -8.019252|    0.622281|    0.020899|
|       10443|   -6.590189|   -8.017532|    0.622281|    0.020899|
|       10444|   -6.590967|   -8.015952|    0.622280|    0.020899|
|       10445|   -6.591748|   -8.014505|    0.622280|    0.020899|
|       10446|   -6.592521|   -8.013184|    0.622280|    0.020899|
|       10447|   -6.593272|   -8.011982|    0.622280|    0.020899|
|       10448|   -6.593986|   -8.010888|    0.622280|    0.020899|
|       10449|   -6.594651|   -8.009895|    0.622279|    0.020899|
|       10450|   -6.595252|   -8.008992|    0.622279|    0.020899|
|       10451|   -6.595776|   -8.008170|    0.622279|    0.020899|
|       10452|   -6.596213|   -8.007419|    0.622279|    0.020899|
|       10453|   -6.596552|   -8.006730|    0.622279|    0.020899|
|       10454|   -6.596784|   -8.006093|    0.622278|    0.020899|
|       10455|   -6.596903|   -8.005500|    0.622278|    0.020899|
|       10456|   -6.596902|   -8.004942|    0.622278|    0.020899|
|       10457|   -6.596779|   -8.004412|    0.622278|    0.020899|
|       10458|   -6.596531|   -8.003902|    0.622278|    0.020899|
|       10459|   -6.596161|   -8.003406|    0.622277|    0.020899|
|       10460|   -6.595669|   -8.002919|    0.622277|    0.020899|
|       10461|   -6.595060|   -8.002434|    0.622277|    0.020899|
|       10462|   -6.594340|   -8.001949|    0.622277|    0.020899|
|       10463|   -6.593516|   -8.001458|    0.622276|    0.020899|
|       10464|   -6.592599|   -8.000959|    0.622276|    0.020899|
|       10465|   -6.591600|   -8.000450|    0.622276|    0.020899|
|       10466|   -6.590531|   -7.999927|    0.622276|    0.020899|
|       10467|   -6.589408|   -7.999389|    0.622276|    0.020899|
|       10468|   -6.588245|   -7.998834|    0.622275|    0.020898|
|       10469|   -6.587061|   -7.998261|    0.622275|    0.020898|
|       10470|   -6.585874|   -7.997668|    0.622275|    0.020898|
|       10471|   -6.584704|   -7.997055|    0.622275|    0.020898|
|       10472|   -6.583570|   -7.996420|    0.622274|    0.020898|
|       10473|   -6.582494|   -7.995762|    0.622274|    0.020898|
|       10474|   -6.581497|   -7.995081|    0.622274|    0.020898|
|       10475|   -6.580599|   -7.994376|    0.622274|    0.020898|
|       10476|   -6.579823|   -7.993646|    0.622274|    0.020898|
|       10477|   -6.579189|   -7.992891|    0.622273|    0.020898|
|       10478|   -6.578715|   -7.992110|    0.622273|    0.020898|
|       10479|   -6.578421|   -7.991303|    0.622273|    0.020898|
|       10480|   -6.578324|   -7.990471|    0.622273|    0.020898|
|       10481|   -6.578439|   -7.989613|    0.622273|    0.020898|
|       10482|   -6.578782|   -7.988730|    0.622272|    0.020898|
|       10483|   -6.579365|   -7.987824|    0.622272|    0.020898|
|       10484|   -6.580198|   -7.986896|    0.622272|    0.020898|
|       10485|   -6.581290|   -7.985947|    0.622272|    0.020898|
|       10486|   -6.582647|   -7.984979|    0.622272|    0.020898|
|       10487|   -6.584273|   -7.983997|    0.622272|    0.020898|
|       10488|   -6.586170|   -7.983001|    0.622271|    0.020898|
|       10489|   -6.588339|   -7.981996|    0.622271|    0.020898|
|       10490|   -6.590775|   -7.980986|    0.622271|    0.020898|
|       10491|   -6.593476|   -7.979973|    0.622271|    0.020898|
|       10492|   -6.596433|   -7.978963|    0.622271|    0.020898|
|       10493|   -6.599639|   -7.977959|    0.622271|    0.020898|
|       10494|   -6.603082|   -7.976966|    0.622270|    0.020898|
|       10495|   -6.606751|   -7.975989|    0.622270|    0.020898|
|       10496|   -6.610630|   -7.975031|    0.622270|    0.020898|
|       10497|   -6.614705|   -7.974096|    0.622270|    0.020898|
|       10498|   -6.618960|   -7.973188|    0.622270|    0.020887|
+-----------------------------------------------------------------------+
|Fixed CL Mode (Finite Difference)       |Value                         |
+-----------------------------------------------------------------------+
|Delta CL / Delta AoA                    |0.138544                      |
|Delta CD / Delta CL                     |0.063943                      |
|Delta CMz / Delta CL                    |0.0150233                     |
+-----------------------------------------------------------------------+
Writing Flow Meta-Data file: flow.meta

----------------------------- Solver Exit -------------------------------

Maximum number of iterations reached (ITER = 10499) before convergence.
+-----------------------------------------------------------------------+
|      Convergence Field     |     Value    |   Criterion  |  Converged |
+-----------------------------------------------------------------------+
|                    rms[Rho]|      -6.61896|         < -12|          No|
+-----------------------------------------------------------------------+
-------------------------------------------------------------------------

--------------------------- Finalizing Solver ---------------------------
Deleted CNumerics container.
Deleted CIntegration container.
Deleted CSolver container.
Deleted CIteration container.
Deleted CInterface container.
Deleted CGeometry container.
Deleted CFreeFormDefBox class.
Deleted CSurfaceMovement class.
Deleted CVolumetricMovement class.
Deleted CConfig container.
Deleted nInst container.
Deleted COutput class.
-------------------------------------------------------------------------

------------------------- Exit Success (SU2_CFD) ------------------------


-------------------------------------------------------------------------
|    ___ _   _ ___                                                      |
|   / __| | | |_  )   Release 8.0.0 "Harrier"                           |
|   \__ \ |_| |/ /                                                      |
|   |___/\___//___|   Suite (Solution Exporting Code)                   |
|                                                                       |
-------------------------------------------------------------------------
| SU2 Project Website: https://su2code.github.io                        |
|                                                                       |
| The SU2 Project is maintained by the SU2 Foundation                   |
| (http://su2foundation.org)                                            |
-------------------------------------------------------------------------
| Copyright 2012-2023, SU2 Contributors                                 |
|                                                                       |
| SU2 is free software; you can redistribute it and/or                  |
| modify it under the terms of the GNU Lesser General Public            |
| License as published by the Free Software Foundation; either          |
| version 2.1 of the License, or (at your option) any later version.    |
|                                                                       |
| SU2 is distributed in the hope that it will be useful,                |
| but WITHOUT ANY WARRANTY; without even the implied warranty of        |
| MERCHANTABILITY or FITNESS FOR A PARTICULAR PURPOSE. See the GNU      |
| Lesser General Public License for more details.                       |
|                                                                       |
| You should have received a copy of the GNU Lesser General Public      |
| License along with SU2. If not, see <http://www.gnu.org/licenses/>.   |
-------------------------------------------------------------------------

----------------- Physical Case Definition ( Zone 0 ) -------------------
Input mesh file name: trax_125.su2

-------------------- Output Information ( Zone 0 ) ----------------------
The tabular file format is CSV (.csv).
Flow variables file name: flow.

------------- Config File Boundary Information ( Zone 0 ) ---------------
+-----------------------------------------------------------------------+
|                        Marker Type|                        Marker Name|
+-----------------------------------------------------------------------+
|                          Far-field|                           FARFIELD|
+-----------------------------------------------------------------------+
|                     Heat flux wall|                            AIRFOIL|
+-----------------------------------------------------------------------+
Two dimensional problem.
13937 grid points before partitioning.
22842 volume elements before partitioning.
2 surface markers.
192 boundary elements in index 0 (Marker = AIRFOIL).
40 boundary elements in index 1 (Marker = FARFIELD).
Executing the partitioning functions.
Building the graph adjacency structure.
Calling ParMETIS... graph partitioning complete (1496 edge cuts).
Distributing ParMETIS coloring.
Rebalancing vertices.
Rebalancing volume element connectivity.
Rebalancing markers and surface elements.
15800 vertices including ghost points. 
24347 interior elements including halo cells. 
19221 triangles.
5126 quadrilaterals.
Establishing MPI communication patterns.
Identify vertices.
Storing a mapping from global to local point index.

------------------------- Solution Postprocessing -----------------------
Reading and storing the solution from restart_flow.
Volume output fields: COORDINATES, SOLUTION
  Info: Ignoring the following screen output fields:
  RMS_DENSITY, RMS_NU_TILDE, LIFT, DRAG
Screen output fields: INNER_ITER
  Info: Ignoring the following history output groups:
  RMS_RES, AERO_COEFF
History output group(s): ITER
Warning: No (valid) fields chosen for convergence monitoring. Convergence monitoring inactive.
Warning: No (valid) fields chosen for time convergence monitoring. Time convergence monitoring inactive.
|Paraview                           |flow.vtu                           |
|Paraview surface                   |surface_flow.vtu                   |
|CSV file                           |surface_flow.csv                   |

------------------------- Finalize Solver -------------------------
Deleted CGeometry container.
Deleted CSolver class.
Deleted CConfig container.
Deleted COutput class.

Completed in 0.025173 seconds on 16 cores.

------------------------- Exit Success (SU2_SOL) ------------------------

